8
b3lypvtz=-242563.32182131
N       1.27429519      1.26228126      0.00065608
C       0.96599112      0.04809463      0.00010065
F       1.87516211     -0.94306215     -0.00075236
N      -0.31566778     -0.50132837      0.00052162
C      -1.28495563      0.29124400     -0.00018518
F      -2.51810678     -0.18910246      0.00041098
H       2.28090900      1.40092606      0.00032124
H      -1.25944724      1.37800605     -0.00128402
