10
b3lypvtz=-214997.67582584
N       2.12361615      0.20298064     -0.15497269
N       0.92115241      0.55788692     -0.65929158
C      -0.13081039      0.00262647     -0.22671235
F      -0.06691934     -1.00166744      0.69580286
C      -1.47104633      0.37215412     -0.66594711
N      -2.56496282     -0.14796585     -0.28508241
H       2.87376336      0.44126826     -0.78182931
H       2.19176285     -0.71860993      0.25896432
H      -1.48205236      1.17872331     -1.39637816
H      -2.39440354     -0.88739650      0.39924643
