11
b3lypvtz=-199928.53186288
C       2.11112000     -0.60246886     -0.00001141
N       0.66220098     -0.61370735      0.00004207
C      -0.07757739      0.50757378      0.00000383
O       0.31880415      1.64931926     -0.00004195
N      -1.55807765      0.29871198      0.00003407
N      -1.88821190     -0.88948159     -0.00003073
H       2.50560619     -1.10136628     -0.88715165
H       2.50567297     -1.10126924      0.88715375
H       2.44194254      0.43280245     -0.00008048
H       0.15234046     -1.48418202      0.00003237
H      -2.91764233     -0.92537112     -0.00000686
