13
b3lypvtz=-179780.23014029
O      -1.97997806     -0.48352238     -0.41632169
C      -1.39173206      0.47698852      0.01317850
C      -0.02696333      0.42377836      0.64761209
C       1.09960040      0.96544197     -0.28572330
C       1.48371471     -0.51872525     -0.48971245
N       0.62279616     -0.89339531      0.66347406
H      -1.84161379      1.49184964     -0.03836846
H      -0.09838785      0.91539284      1.62582108
H       0.78285781      1.52129192     -1.16631754
H       1.84659720      1.54221110      0.25374738
H       2.53584364     -0.77210828     -0.35585698
H       1.14262238     -0.91523063     -1.44960289
H      -0.02650121     -1.64956449      0.47479220
