14
b3lypvtz=-169732.17343843
C       2.56381564     -0.00139907      0.00009036
C       1.39423264     -0.63254167     -0.00008253
C       0.09748064      0.11085973     -0.00019849
O       0.05218047      1.32358889     -0.00011216
C      -1.15608459     -0.74477492     -0.00007143
C      -2.45302282      0.05108548      0.00003759
H       2.59545480      1.08094706      0.00011006
H       3.50309686     -0.53768556      0.00021279
H       1.34704040     -1.71583605     -0.00011172
H      -1.09827391     -1.41142108     -0.86853657
H      -1.09806969     -1.41128998      0.86848284
H      -2.51526838      0.69477565      0.87695084
H      -3.31512977     -0.61650579      0.00019332
H      -2.51550329      0.69466232     -0.87694191
