13
b3lypvtz=-179794.52373307
C       1.51465011      1.28139339     -0.07776809
C       1.05377522      0.02861363     -0.04917915
O       1.88717886     -1.03025469      0.15072080
N      -0.26742297     -0.37623527     -0.28665242
C      -1.23732822      0.25068790      0.23861689
C      -2.65794132     -0.11048975     -0.03354979
H       2.56854552      1.47810200      0.04256045
H       0.84857631      2.10736651     -0.26584227
H       1.36717744     -1.82980685      0.00492677
H      -1.05771392      1.09279632      0.91656150
H      -2.71837500     -0.97165983     -0.69529841
H      -3.18259804     -0.32710415      0.90089329
H      -3.17849200      0.73467178     -0.49328158
