12
b3lypvtz=-213157.58610834
N      -1.83944402      0.72073862     -0.96542647
N      -1.07460334      0.46927743      0.25763171
C       0.09396310      0.05298154     -0.04968036
O       0.53035950     -0.13571070     -1.30435642
C       1.11777729     -0.25686166      1.00424645
O       1.70529620     -1.53439004      0.82414616
H      -2.13283313      1.69171259     -0.91023539
H      -2.69380556      0.18109092     -0.86415004
H      -0.25145065      0.10914342     -1.85133764
H       0.62958518     -0.25094081      1.97497353
H       1.87687603      0.53659093      0.99190313
H       2.03827939     -1.58373223     -0.07831466
