9
b3lypvtz=-178240.65521812
C       2.08020273      0.28878235     -0.20542021
C       0.93907520     -0.02503509     -0.38871448
C      -0.46115033     -0.38276727     -0.63804738
O      -1.09776767      0.46314996     -1.57992445
C      -1.21482852     -0.43572484      0.63678173
N      -1.82194355     -0.46472134      1.61263029
H       3.09315823      0.56227338     -0.04011223
H      -0.50135173     -1.38223988     -1.07846079
H      -1.01529436      1.37628274     -1.27983246
