15
b3lypvtz=-203867.46477924
C       0.66381761      1.47061919     -0.13930995
C       0.42696395     -0.02611890     -0.01021549
O       0.46710348     -0.31171679      1.38458567
O       1.42198408     -0.77281591     -0.68902688
C      -0.90505569     -0.50083197     -0.62108310
N      -2.11810648      0.03428099     -0.02133951
H       0.68326743      1.75665522     -1.19013320
H       1.61835352      1.73447023      0.31864839
H      -0.11552802      2.03361668      0.37214640
H       0.42574685     -1.27108145      1.47900885
H       2.28423975     -0.48070885     -0.37198895
H      -0.90185919     -0.27393480     -1.68788349
H      -0.91839273     -1.59160682     -0.53668105
H      -2.23440661      1.01517044     -0.24194689
H      -2.06907694     -0.03966425      0.98830718
