15
b3lypvtz=-201461.82977640952
C       1.77925139      0.05953591     -0.73916070
N       0.91121885     -0.22916608      0.40132156
C      -0.52439933     -0.15811046      0.17178346
N      -0.97299922      1.21940315      0.00024978
N      -1.28394932     -0.69203522      1.28457222
O      -0.76409635     -0.98260917     -0.96213677
H       2.81613089     -0.03908470     -0.41759885
H       1.65844307      1.06569483     -1.16724811
H       1.59654720     -0.66912576     -1.52481794
H       1.12272908      0.40262514      1.16376589
H      -0.54175187      1.61296457     -0.82741918
H      -1.97604075      1.23571827     -0.14979034
H      -0.83051596     -1.53659614      1.61258984
H      -1.30928373     -0.02221596      2.04317188
H      -1.68128397     -1.26699837     -0.88928275
