13
b3lypvtz=-177368.48936361
C      -3.02921724     -0.13689383      0.00354549
C      -1.65062576      0.43594115      0.00165138
C      -0.52856337     -0.28573696     -0.00007050
N       0.72182355      0.33945362      0.00167127
N       1.67545805     -0.47050395      0.00560545
N       2.88119874      0.12816391     -0.06395076
H      -3.01377550     -1.22708961      0.00291800
H      -3.59518980      0.19558613     -0.87156446
H      -3.59300710      0.19462890      0.88049230
H      -1.55259511      1.51642809      0.00040547
H      -0.53694307     -1.37344958     -0.00270999
H       3.61894720     -0.44761552      0.30597995
H       2.89472641      1.11369964      0.18126641
