9
b3lypvtz=-232473.25105093
C      -2.32631222     -0.12132177     -0.00004837
N      -1.20823424     -0.73071504     -0.00001284
C      -0.03125123     -0.03766194     -0.00000085
F      -0.05354658      1.31516193     -0.00001627
C       1.14049090     -0.67615410      0.00001091
F       2.30004280     -0.01698712      0.00000599
H      -3.23440808     -0.71457358      0.00000518
H      -2.42116395      0.96370275      0.00001133
H       1.21560560     -1.75135012     -0.00000010
