14
b3lypvtz=-167317.71653091558
C      -1.44617272      0.73043399     -0.04232050
C      -0.40823816     -0.26106778     -0.54886092
C      -0.12025533     -1.53487181      0.30532556
N       1.29227110     -1.07579504      0.48936950
C       1.04149201     -0.02011001     -0.21085311
N       1.86816916      1.00494626     -0.53192520
H      -2.45391539      0.32696861     -0.15912492
H      -1.29182862      0.95216336      1.01520175
H      -1.40507440      1.67338056     -0.59275891
H      -0.57173098     -0.48072501     -1.60713528
H      -0.20202527     -2.48844458     -0.22070356
H      -0.67857685     -1.59259860      1.24258404
H       2.81864674      1.00013383     -0.20569917
H       1.55723869      1.76558621     -1.10367171
