13
b3lypvtz=-156452.1720251
C       1.94405487      0.41195990      0.32292254
C       0.67628379      0.11358567      0.08590987
C      -0.31443289     -0.89049975      0.68865032
C      -1.29414466     -0.48805709     -0.42870753
N      -1.57012759      0.93317510     -0.39913978
C      -0.29409019      0.49690430     -0.98595213
H       2.49018593      1.09206141     -0.31891804
H       2.48205953     -0.01974827      1.15734443
H      -0.66508297     -0.72331687      1.70971243
H       0.05173349     -1.91460549      0.60319378
H      -1.97754283     -1.13831287     -0.95539346
H      -1.45064452      1.33957566      0.52473942
H      -0.07835196      0.78717831     -2.00436186
