16
b3lypvtz=-170483.27440471
C       2.76327809      0.72888433      0.09825839
C       1.89888634     -0.48783027     -0.25772969
C       0.52597102     -0.42325977      0.34127412
C      -0.61900397     -0.45002246     -0.33488361
C      -1.97607187     -0.37641481      0.29304504
O      -2.74154807      0.73118126     -0.18963321
H       2.86427471      0.83759698      1.18008494
H       2.32164775      1.64873463     -0.28814657
H       3.76576466      0.63254392     -0.32128089
H       1.82135324     -0.58605407     -1.34287557
H       2.40261767     -1.39203464      0.10153976
H       0.48640628     -0.34709726      1.42690623
H      -0.60547707     -0.51654693     -1.41986627
H      -2.56748108     -1.25751568      0.03450760
H      -1.88564026     -0.34827097      1.38548463
H      -2.22037843      1.52865775     -0.05104888
