11
b3lypvtz=-207340.42947903
C      -1.50250133      1.23603997     -1.29474991
C      -0.94163926      0.42707813     -0.39191012
C       0.43568589     -0.01391142     -0.42707682
C       0.98767373     -0.81962260      0.47939736
O       2.25978853     -1.24500535      0.47375191
F       0.29954064     -1.30570610      1.53060138
H      -2.53887464      1.53195987     -1.21524990
H      -0.94341981      1.62492580     -2.13710925
H      -1.54364397      0.06406814      0.43365368
H       1.08225714      0.31570453     -1.22881157
H       2.40513308     -1.81553098      1.23747778
