15
b3lypvtz=-180536.15645989
N       2.72924880      0.17805483     -0.18186425
C       1.45066169     -0.42901312      0.20265812
C       0.32121036      0.59325102      0.08479650
C      -1.01083879      0.03996217      0.51190762
C      -2.26954830      0.43915212     -0.11996308
O      -1.67935435     -0.83089403     -0.41419139
H       2.72763450      0.39565942     -1.17252557
H       3.48844113     -0.47686499     -0.03633257
H       1.53627546     -0.75035153      1.24418909
H       1.18623026     -1.31832553     -0.38422735
H       0.56801737      1.46502547      0.69744332
H       0.24418138      0.93762972     -0.95066897
H      -1.06273606     -0.31086047      1.54107999
H      -3.19629201      0.40011807      0.44375114
H      -2.25026346      1.15750683     -0.93396860
