10
b3lypvtz=-186699.62960022
N       0.79180348      0.04802211     -0.13593592
C       0.21736079      0.16780803      1.12427090
C      -0.45247690     -0.71057570      1.94667758
N      -0.88813579     -0.03077461      3.04452122
N      -0.53027471      1.20684040      2.96585483
N       0.14208225      1.34421674      1.78864886
H       0.47101935      2.25130594      1.50416783
H       0.80707741     -0.90537297     -0.46502093
H       1.71325373      0.45548499     -0.21544140
H      -0.63800962     -1.76175493      1.81365703
