17
b3lypvtz=-181307.77658436
C      -1.31707168     -0.38186935      1.31785387
N      -0.35344892      0.19127785      0.38899979
C      -0.99227175      1.14480241     -0.50897463
C       0.41429550     -0.83202244     -0.32357523
C       1.74838946     -0.27368793     -0.80953855
O       2.47320214      0.30617817      0.26090921
H      -1.80106257      0.41515098      1.88387349
H      -2.10542742     -0.96457975      0.81257630
H      -0.80800727     -1.03829773      2.02335732
H      -0.25449590      1.61322857     -1.15856699
H      -1.47192819      1.93240038      0.07274058
H      -1.75915020      0.67337556     -1.14636447
H       0.62163971     -1.63940306      0.38056624
H      -0.14970503     -1.26375853     -1.16763647
H       1.59320109      0.45546946     -1.61547498
H       2.35439244     -1.08311682     -1.22030008
H       1.80744861      0.74505224      0.80945461
