10
b3lypvtz=-214981.50196995
C      -1.97707030      0.90127585     -0.23633860
C      -1.06582289     -0.06697556     -0.25021158
N       0.29652452      0.19080825     -0.21568642
N       1.02707601     -0.82917361     -0.23338433
N       2.32536574     -0.53946106     -0.25403682
F      -1.44564604     -1.35735121     -0.29492289
H      -1.65286251      1.92803844     -0.20051518
H      -3.02912467      0.66732720     -0.25965449
H       2.92121782     -1.30424688      0.00929123
H       2.60034232      0.40975859     -0.02343994
