14
b3lypvtz=-216339.60716381
C      -1.39857006      0.02503800     -0.44049115
C      -0.01364388      0.39358302      0.06203828
O       0.26664984      1.69269009     -0.42045428
O       0.05672361      0.36141663      1.48486617
C       1.07430429     -0.58616270     -0.39223547
O       0.89262727     -1.88859898      0.12632649
H      -1.63095535     -1.00130033     -0.16444689
H      -2.14365845      0.69646313     -0.00970546
H      -1.44399714      0.12183434     -1.52445716
H       1.12580383      1.95685446     -0.07018625
H      -0.68931617      0.85750292      1.83915354
H       1.05713869     -0.66345961     -1.47831627
H       2.04667323     -0.16934005     -0.09384876
H       0.80032028     -1.79652094      1.08185721
