13
b3lypvtz=-179765.73181628
C       2.32246234     -0.05623597     -0.37958317
N       1.56600818     -0.54904002      0.49930149
C       0.15741655     -0.70712835      0.17973647
C      -0.68804891      0.08290113      1.14641188
C      -2.01086262      0.58339459      0.77242739
O      -0.88599334      1.46588378      0.83622483
H       3.37838250      0.08205863     -0.15772662
H       1.97619339      0.24868919     -1.37473697
H      -0.09155483     -1.76729015      0.29263989
H      -0.08381465     -0.40146081     -0.84767705
H      -0.48165725     -0.10920352      2.19525317
H      -2.39309890      0.39296623     -0.22595488
H      -2.76543247      0.73446525      1.53758357
