10
b3lypvtz=-215026.09288101
N      -2.16684654     -0.41210246     -0.00010550
C      -0.94745109     -0.12506929      0.00000639
F      -0.56400852      1.23842206      0.00006363
N       0.07688459     -1.01683501      0.00009271
C       1.32910836     -0.71741220      0.00005097
N       1.95686320      0.47432849     -0.00012830
H      -2.74213471      0.42524910     -0.00015171
H       2.01727718     -1.56003927      0.00014665
H       1.43537737      1.33379085     -0.00012607
H       2.95971915      0.50508573     -0.00003777
