12
b3lypvtz=-189864.66068609
N      -2.53201483     -0.07058980     -0.02133048
C      -1.40705169     -0.64526652     -0.01048664
C      -0.09057309      0.10654997      0.01130922
O      -0.07349805      1.31708328      0.02695080
C       1.16314135     -0.72904891      0.03976528
N       2.35571311      0.06586474     -0.14269953
H      -2.38595299      0.94596467     -0.01646791
H      -1.36379043     -1.73525690     -0.01545785
H       1.06634540     -1.49300138     -0.74418400
H       1.11916941     -1.28848129      0.99026286
H       2.18267583      1.01985100      0.15154710
H       3.14225498     -0.30219886      0.37201115
