14
b3lypvtz=-193024.39008246
C      -2.84023115     -0.41667569      0.00003157
C      -1.65034757      0.51979494     -0.00002435
O      -0.45987505     -0.25630383     -0.00000538
C       0.71580655      0.51392131     -0.00001550
C       1.90859189     -0.41812386      0.00001703
O       3.04782260     -0.03472684      0.00002758
H      -2.82717810     -1.05434600      0.88411250
H      -3.76946403      0.15476719      0.00000094
H      -2.82718145     -1.05444542     -0.88397772
H      -1.66710799      1.17029731     -0.88476006
H      -1.66708657      1.17037455      0.88465500
H       0.78213282      1.16405605      0.88440767
H       0.78213265      1.16403961     -0.88444992
H       1.64584640     -1.49504732      0.00013564
