13
b3lypvtz=-177365.62891187
C       1.19371520      1.43176588     -0.00000072
C       0.93323717      0.12395677      0.00000165
C       1.99091691     -0.94161221     -0.00000522
N      -0.35996416     -0.41407393      0.00001337
N      -1.45957532      0.33702222      0.00000776
N      -2.51341473     -0.33639946     -0.00000487
H       0.40761122      2.17012634      0.00000492
H       2.21808226      1.77052712     -0.00000626
H       1.90414741     -1.58285650      0.88147439
H       1.90413699     -1.58285575     -0.88148447
H       2.98105890     -0.49331894     -0.00001113
H      -0.50331924     -1.41918817     -0.00000733
H      -3.27613461      0.34267564     -0.00000409
