13
b3lypvtz=-177383.94865563
N      -2.40684209     -0.78413156      0.16140635
C      -1.66357194      0.02969647     -0.46574485
N      -0.80534207      0.99041735      0.07241063
C       0.41057448      0.78037877      0.34946481
C       1.19189945     -0.49856303      0.16761079
N       2.57036154     -0.18843162     -0.20584487
H      -2.25275415     -0.71069850      1.16908664
H      -1.75294536      0.09100930     -1.55264685
H       0.98799157      1.60567528      0.76808075
H       1.21520114     -1.00581617      1.13775628
H       0.65859149     -1.16589955     -0.51990430
H       2.62747955      0.09930324     -1.17512749
H       3.16463439     -1.00007299     -0.10011789
