11
b3lypvtz=-176617.20448058
N      -1.44951850     -1.31361863      0.01982406
C      -1.70753482     -0.07335954     -0.00810093
C      -0.75777241      1.07095298     -0.14418529
N       0.49920766      1.07549742      0.01877365
C       1.25864453     -0.02497207      0.42437642
N       2.14562801     -0.61820342     -0.25999976
H      -0.45182355     -1.50688187     -0.08312886
H      -2.75524646      0.22761104      0.06190658
H      -1.22367717      2.02116289     -0.40874551
H       1.10980150     -0.31447081      1.46810978
H       2.20253420     -0.22274200     -1.20084914
