11
b3lypvtz=-199936.91102826
N      -2.34717209     -0.71589932      0.37943032
N      -1.26867671      0.13115962      0.58303954
C      -0.17215300     -0.15082239      0.01558102
N       0.96054859      0.62123944      0.24806444
C       2.18590663      0.41020339     -0.32037988
O       3.16169907      1.09253544     -0.11155211
H      -3.19764906     -0.19294241      0.52782262
H      -2.36340543     -1.14639036     -0.54210277
H      -0.02363059     -0.98846923     -0.66799051
H       0.87240338      1.39931657      0.88806368
H       2.19212921     -0.45973075     -0.99987637
