15
b3lypvtz=-157257.14649948
C       2.76551236     -0.08375771      0.00000111
C       1.32435114      0.31315397      0.00000440
C       0.29914836     -0.54114181      0.00000224
C      -1.12679892     -0.18316336      0.00000471
C      -1.51462849      1.27778162      0.00000877
N      -1.96428738     -1.14950410      0.00000728
H       2.88505655     -1.16690551      0.00000300
H       3.28231285      0.31903688      0.87584985
H       3.28230853      0.31903325     -0.87585190
H       1.12870761      1.38107402      0.00000723
H       0.48054119     -1.61059601      0.00000032
H      -1.11644420      1.78924015     -0.87877059
H      -1.11644139      1.78923824      0.87878806
H      -2.59839045      1.38535455      0.00001081
H      -2.92239476     -0.79847018      0.00000970
