14
b3lypvtz=-169693.13702787
C      -1.93546057     -0.30306570     -0.27071011
C      -0.74356471      0.23954459      0.49739267
C       0.20696134      1.28438146     -0.20103224
C       1.36596518      0.31325170      0.02807796
O       1.03131409     -0.91036971     -0.64247044
C       0.48282559     -0.67414373      0.66181222
H      -1.61560645     -0.73252171     -1.22041233
H      -2.65882213      0.48722295     -0.48172691
H      -2.45029917     -1.08029380      0.29880285
H      -1.05239018      0.62344243      1.47175056
H       0.00098702      1.50668818     -1.24801465
H       0.29417201      2.21333790      0.36115644
H       2.41621019      0.51991806      0.17940115
H       0.68060779     -1.42175563      1.41825781
