15
b3lypvtz=-180543.43375629
N       1.33836972     -0.14517647     -1.53248400
C       1.12747381     -0.06337302     -0.07982085
C      -0.29218763      0.38519395      0.17627346
O      -0.60294881      1.58023127     -0.48964403
C      -1.39175229     -0.63828166      0.33233430
C      -0.92862927      0.20489399      1.50811469
H       0.92889438     -0.99182916     -1.90914746
H       2.32309920     -0.15619195     -1.76293746
H       1.32756979     -0.99951038      0.45527371
H       1.80944633      0.69494854      0.31154258
H      -0.20140430      1.48735555     -1.36666528
H      -1.14215800     -1.69168538      0.32873557
H      -2.34833438     -0.38952226     -0.10420184
H      -0.36251610     -0.27496367      2.29554422
H      -1.58492246      0.99801065      1.83718239
