15
b3lypvtz=-157249.44335006
C       2.55680479     -0.03314351      0.74685845
C       1.35731208      0.28239493     -0.09192549
C       0.22420339     -0.41197509     -0.10318696
C      -0.98180915     -0.09014570     -0.94476965
C      -2.16635112      0.29739956     -0.09869575
N      -3.23404691     -0.38274095     -0.09213280
H       3.43694149     -0.21356566      0.12341572
H       2.39226254     -0.91568755      1.36562787
H       2.80802310      0.80279312      1.40581938
H       1.44384624      1.14854953     -0.74428215
H       0.12766969     -1.27906496      0.54540372
H      -0.74365222      0.73879325     -1.61864766
H      -1.27611829     -0.94930474     -1.55132720
H      -2.02259961      1.19511794      0.51533888
H      -3.92248602      0.02212905      0.54250364
