10
b3lypvtz=-165771.23756126
C       2.10633037     -0.54196122      0.38529009
C       1.01062169     -0.25661541     -0.00750618
C      -0.36027380      0.03715718     -0.45894815
C      -0.54868367      1.49297031     -0.60824167
N      -0.69421952      2.62684877     -0.72470188
N      -1.43111343     -0.50518647      0.38534021
H       3.08077406     -0.78401255      0.73104661
H      -0.48966646     -0.39246113     -1.45738803
H      -1.34475740     -1.51440251      0.42097069
H      -1.32901183     -0.16233697      1.33413832
