14
b3lypvtz=-167330.2473178
C       2.13549035      0.45343585      0.44929892
C       1.44595233     -0.71198313     -0.18856148
C       0.14177920     -0.86439127     -0.42018105
C      -0.93180375      0.12406428     -0.12972441
N      -0.91918066      1.37157788     -0.41722458
N      -2.02237019     -0.40599206      0.52404979
H       1.43621187      1.17878046      0.85968739
H       2.79281738      0.10723332      1.25080514
H       2.77631600      0.96735140     -0.27373032
H       2.09440541     -1.53475554     -0.47448997
H      -0.19605400     -1.80402307     -0.84813544
H      -0.05789690      1.61734142     -0.89305041
H      -2.16268447     -1.39993369      0.51098121
H      -2.85106857      0.16586114      0.53389921
