11
b3lypvtz=-202348.53963763
C       1.97282050     -0.59268613      0.35960294
C       0.85707060     -0.00244941     -0.06077189
N       0.64991749      1.33417095     -0.34983573
O      -0.21349350     -0.84550446     -0.40978747
C      -1.48062184     -0.53606327     -0.08700305
O      -1.85822916      0.42940560      0.51739237
H       2.03918342     -1.66719588      0.40267177
H       2.83583410     -0.00427575      0.63071684
H      -0.21947391      1.69904690      0.01648030
H       1.44128911      1.91223632     -0.11194709
H      -2.13507682     -1.32859586     -0.46748599
