12
b3lypvtz=-192287.45955395
C      -2.17608478      0.25621933      0.03548175
C      -0.97065186      0.31517021     -0.51230245
C       0.30417385      0.42966002      0.26659934
C       1.37783249     -0.53469757     -0.18933084
O       1.36979085     -1.18060763     -1.20372995
O       2.40582301     -0.57228927      0.69305578
H      -2.31762602      0.27050004      1.10993774
H      -3.06853783      0.19009312     -0.57214389
H      -0.86262872      0.28308285     -1.59008326
H       0.13936806      0.29611909      1.33654193
H       0.73560336      1.43202149      0.15285762
H       3.06293757     -1.18527165      0.33072996
