12
b3lypvtz=-189829.27873383
C      -2.68618915     -0.27612474     -0.00009502
O      -1.26929692     -0.44154766      0.00017220
C      -0.54764320      0.68607958      0.00002022
C       0.79609608      0.72347885     -0.00003058
N       1.55960359     -0.43971486      0.00001146
N       2.79346391     -0.22453800     -0.00003088
H      -3.01735489      0.25948806      0.89288731
H      -3.01711996      0.25853624     -0.89373352
H      -3.11196253     -1.27548809      0.00038233
H      -1.10741060      1.61709576     -0.00003405
H       1.30501702      1.68187539     -0.00010159
H       3.24745264     -1.14710152      0.00000712
