11
b3lypvtz=-204942.9246019
N      -2.75906107     -0.02631918      0.00302964
C      -1.53038214      0.31867275      0.02880824
C      -0.36096797     -0.53167244     -0.00517974
C       0.90390970     -0.07392934     -0.00536330
N       1.38505187      1.20054515     -0.08372283
F       1.91734740     -0.95567677      0.01897915
H      -2.84620243     -1.04309925     -0.05988387
H      -1.34882694      1.39643705      0.09171493
H      -0.49107165     -1.60484186     -0.03487558
H       2.28597995      1.35201632      0.34205039
H       0.72355529      1.94583656      0.05443098
