10
b3lypvtz=-189113.99336651
N      -2.04203707      0.09949656      0.00055711
C      -0.77976555      0.03139404     -0.00027271
N       0.10535827      1.08744554     -0.00122810
H      -0.19816673      2.04279582      0.00359475
C       1.41288991      0.61260623      0.00050364
C       1.33799488     -0.71866440      0.00041575
O       0.00669616     -1.10953596     -0.00047579
H      -2.46334204     -0.82247670      0.00123475
H       2.26837097      1.26220067      0.00078134
H       2.07715119     -1.49614580      0.00037626
