15
b3lypvtz=-157267.95164159
C      -2.13685999     -0.34496535      0.10943508
C      -1.04931750      0.62882440     -0.33691402
C       0.31302523      0.41713177      0.35691956
C       1.34089009      1.49049558     -0.03889927
C       0.84153537     -0.92124606      0.07523316
N       1.25753644     -1.96764069     -0.16332308
H      -1.85956827     -1.37765778     -0.10549072
H      -3.07464527     -0.13712593     -0.40673805
H      -2.32411748     -0.26460403      1.18235660
H      -1.36007964      1.65511994     -0.12719044
H      -0.90411909      0.56032746     -1.41765308
H       0.15639190      0.46624404      1.43934952
H       1.52462760      1.47178545     -1.11333265
H       2.29098485      1.33571199      0.47085217
H       0.96242675      2.47739818      0.22823924
