13
b3lypvtz=-177380.84237706
C      -2.28795774      0.83250240      0.00006074
C      -1.75304234     -0.57046154      0.00008906
N      -0.52418186     -0.91865663      0.00006393
N       0.43012236      0.04492028      0.00002002
C       1.76306090     -0.31349228     -0.00000597
N       2.77528606      0.45253876     -0.00011476
H      -1.95700458      1.39038010      0.88233594
H      -1.95743722      1.39017689     -0.88250554
H      -3.37571118      0.82958463      0.00032635
H      -2.45406748     -1.39650909      0.00012535
H       0.18252293      1.02700313     -0.00008703
H       1.88800421     -1.39324888      0.00008294
H       2.51568894      1.44041222     -0.00019203
