11
b3lypvtz=-204920.0116143
C      -2.02552669      0.54533375      0.30739395
C      -1.20890395     -0.48490471      0.13403773
F      -1.72433636     -1.71929538     -0.10787280
C       0.24950884     -0.52947624      0.16411352
N       0.95033853      0.53099657      0.27861676
N       2.29626753      0.41468253      0.38318618
H      -3.09538968      0.41752999      0.24914160
H      -1.61177137      1.52083964      0.50715764
H       0.69618283     -1.52451274      0.08805969
H       2.70975374     -0.42986609     -0.00264279
H       2.76377660      1.25857268      0.09390852
