11
b3lypvtz=-207310.8925328
C       2.11079883     -1.11594354      0.50904187
C       1.22213671     -0.37196557      0.20487350
C       0.11870170      0.49565810     -0.19642208
O      -0.10013891      1.47868644      0.80751606
C      -1.14232851     -0.33291617     -0.42461660
F      -2.16188290      0.53925233     -0.81809731
H       2.90577791     -1.76257500      0.78634354
H       0.38031978      0.97893138     -1.14758592
H      -0.88183321      1.97844272      0.54377944
H      -1.45321233     -0.81834754      0.50036868
H      -0.99833906     -1.06932314     -1.21530116
