9
b3lypvtz=-199142.1052696
C      -1.90928834      0.09108317     -0.01369811
N      -0.90031087     -0.59102600     -0.37879661
C       0.36083294     -0.05380735     -0.01960249
O       0.58340849      0.95860861      0.58603673
N       1.45864059     -0.94952962     -0.51218049
N       2.59057514     -0.55334981     -0.23525478
H      -2.90010508     -0.27811672     -0.26348822
H      -1.82839145      1.02996019      0.53872262
H       2.54463856      0.34617754      0.29826136
