12
b3lypvtz=-192261.5482947
O       2.62128890      0.86170033     -0.66000003
C       1.66179278     -0.06841970     -0.37036715
C       0.37442739      0.26555710     -0.24475843
C      -0.67467859     -0.68371837      0.06001645
C      -1.97933251     -0.41166798      0.19575200
O      -2.59132891      0.80068533      0.07780379
H       3.47996867      0.43519717     -0.71093415
H       2.00427769     -1.09081328     -0.24867200
H       0.13232178      1.31513947     -0.38481857
H      -0.38917109     -1.71990909      0.19367956
H      -2.70009380     -1.18345334      0.42502008
H      -1.93947231      1.47960235     -0.12672153
