16
b3lypvtz=-168083.3005539
C      -0.11159309      1.53647545     -0.02642102
C       0.08645291      0.06644735      0.23275323
C       1.28072924     -0.53385479      0.16323701
N       2.49656314      0.05679537     -0.19118925
C      -1.13535736     -0.73667471      0.58735835
N      -2.11980946     -0.72940153     -0.50854636
H       0.64064572      1.94662012     -0.70315126
H      -0.07970452      2.12215775      0.89983302
H      -1.08688432      1.70218494     -0.48422534
H       1.35217489     -1.60138728      0.34038556
H       3.31036999     -0.41425712      0.16964446
H       2.55397395      1.05147336     -0.03813251
H      -1.63301306     -0.28829903      1.45511471
H      -0.82472105     -1.74572180      0.89133729
H      -1.75396217     -1.24213608     -1.30284889
H      -2.97586481     -1.19042198     -0.22284076
