12
b3lypvtz=-187430.27090876
C      -2.15652845      0.78740067      0.18141346
N      -1.95009479     -0.42620500     -0.14347601
N      -0.67215575     -0.90268742     -0.20374541
N       0.36505114      0.05537855     -0.43206975
C       1.45402707     -0.27505401      0.14537261
N       2.61707087      0.41025906     -0.05746780
H      -1.36361738      1.50414664      0.37300893
H      -3.18898614      1.10181409      0.26364620
H      -0.64662199     -1.61790730     -0.91936201
H       1.53078864     -1.15045571      0.79151113
H       2.53958045      1.29619457     -0.53214057
H       3.32520532      0.35276186      0.65335423
