10
b3lypvtz=-144851.19673841
C      -3.23911077      0.17547790      0.00000851
C      -2.04091421      0.03567361      0.00000800
C      -0.69067292     -0.12409363      0.00000861
C       0.51383538     -0.25679323      0.00000616
C       1.91292853     -0.45984037      0.00001912
C       2.82223180      0.51973069      0.00000425
H      -4.29310343      0.29944873      0.00000883
H       2.24169708     -1.49470066      0.00004256
H       3.87884642      0.29186234      0.00000251
H       2.53381613      1.56176662     -0.00000754
