12
b3lypvtz=-189882.54244706
C       1.97811180     -0.97408114     -0.10885007
C       0.99857055     -0.07333440      0.03566692
N       1.17476436      1.31082010     -0.00278742
N      -0.34087876     -0.46434619      0.20257952
C      -1.46638865      0.23699937     -0.15048505
O      -2.58742438     -0.20426474     -0.02944036
H       1.75869001     -2.02400615     -0.22698630
H       3.01217285     -0.66604455     -0.13259960
H       0.73586411      1.80957830      0.75981111
H       2.13954480      1.58218162     -0.11320011
H      -0.50663597     -1.41740725      0.49068458
H      -1.24654672      1.23514503     -0.55257822
