16
b3lypvtz=-147182.23413662
C       2.52646776     -0.22809378     -0.00000148
C       1.29403849     -0.74120205     -0.00000213
C       0.03448643      0.00646083     -0.00000061
C       0.11733024      1.50913556      0.00000202
C      -1.11720756     -0.68671572     -0.00000154
C      -2.52206472     -0.17511044      0.00000074
H       3.39590614     -0.87116948     -0.00000511
H       2.71384944      0.83733553     -0.00000076
H       1.18693660     -1.82195364     -0.00000526
H      -0.86131732      1.98119751     -0.00000436
H       0.66183977      1.86668543      0.87743628
H       0.66185151      1.86668747     -0.87742403
H      -1.03294604     -1.77024919     -0.00000359
H      -3.06576967     -0.54378405     -0.87519483
H      -3.06577375     -0.54380548      0.87518462
H      -2.58902533      0.91060551      0.00001403
