13
b3lypvtz=-156476.34267974
C       2.69428081     -0.47717714      0.28679069
C       1.30014016     -0.16990868      0.01241707
C       0.14766007      0.08970014     -0.22344405
C      -1.23281625      0.39463620     -0.49255758
N      -1.63911427      0.96854926     -1.55905483
C      -2.22604434     -0.00026065      0.56757052
H       3.14055114     -1.03474175     -0.53906494
H       3.27385423      0.43857711      0.42073632
H       2.79598866     -1.07586928      1.19361389
H      -0.85331242      1.17268991     -2.17685467
H      -2.18724032     -1.07724948      0.74364482
H      -1.98679930      0.48770494      1.51465387
H      -3.22714816      0.28334941      0.25154891
