11
b3lypvtz=-176637.42405947
C      -2.04885176     -0.00238913      0.00023139
N      -0.59633113     -0.00112010     -0.00063583
C       0.24569382      1.07317946     -0.00001892
N       1.49350410      0.69080113      0.00059194
N       1.49446949     -0.68872795      0.00042123
C       0.24692164     -1.07435152     -0.00030123
H      -2.43423849     -0.51187558     -0.88254684
H      -2.40279652      1.02572620     -0.01039599
H      -2.43392832     -0.49368500      0.89347323
H      -0.10211364      2.09298969      0.00002823
H      -0.09614820     -2.09581322     -0.00057321
