12
b3lypvtz=-192231.78607256
C      -0.45497141     -0.86686423     -0.53620989
C       0.72224682     -0.41652314      0.41432508
C      -0.08551150      0.84858956      0.73582358
C      -1.17320557      0.42438352     -0.15752753
O      -0.29914158      1.50593896     -0.52547410
O       2.00299168     -0.23525097     -0.12632332
H      -0.20342607     -0.96586207     -1.59155239
H      -0.94992631     -1.77211620     -0.18646701
H       0.82609596     -1.08143545      1.27032372
H      -0.08315800      1.46992369      1.62071980
H      -2.23030314      0.64234317     -0.11232065
H       1.92830911      0.44687317     -0.80531728
