13
b3lypvtz=-156457.14830073
C      -2.49418376      0.01660947      0.06531038
C      -1.26399548     -0.00784217     -0.43248318
C      -0.02325565     -0.01039392      0.39316231
C       1.03692010      1.04964179      0.11692038
C       1.91730764      0.08355092     -0.17432144
N       1.01838830     -1.01400860     -0.07122459
H      -3.36651362      0.04264413     -0.57430692
H      -2.67299036      0.01425554      1.13452643
H      -1.10411374     -0.00825768     -1.50586360
H      -0.25348155     -0.13390803      1.45353245
H       1.01399033      2.12389627      0.05180514
H       2.95690675      0.02709547     -0.46719865
H       1.24899004     -1.74901318      0.59126728
