11
b3lypvtz=-202357.12590624
C       0.48990142     -0.30602609      0.45161335
C       1.78044758     -0.04306978     -0.27387724
O       1.85745680      0.58043247     -1.30201076
N      -0.62096811      0.28308392     -0.24617634
C      -1.89392091      0.18498015      0.20599296
O      -2.21944268     -0.39559406      1.22086021
H       0.37126344     -1.39074752      0.56603197
H       0.58186239      0.08143049      1.47399997
H       2.67957694     -0.46972116      0.20888480
H      -0.41035568      0.77968717     -1.09877379
H      -2.61582121      0.69554440     -0.45415330
