13
b3lypvtz=-179792.87316352
O      -1.94112810     -0.20855666      0.69800668
C      -0.82140567     -0.60979546     -0.10631353
C      -0.41471954      0.44668172     -1.10235695
C       0.71789962      1.02377563     -0.68007819
N       1.20991747      0.47780018      0.50353495
C       0.48120322     -0.78525269      0.71248582
H      -1.83581416      0.72972265      0.89142754
H      -1.13631126     -1.55312650     -0.55068728
H      -1.02159025      0.76481667     -1.93379918
H       1.23433834      1.86355035     -1.12356035
H       2.21196383      0.44330464      0.60811089
H       0.26157780     -0.96185638      1.76457789
H       1.05426869     -1.63116413      0.31875172
