13
b3lypvtz=-177406.70037958
C       1.34786331      1.29697627     -0.00000574
C       1.01102353     -0.17220544     -0.00000584
N       1.84292984     -1.13671740      0.00000503
N      -0.33774694     -0.51406848     -0.00001981
C      -1.43955494      0.31763516      0.00000030
N      -2.66493092     -0.01572244      0.00001114
H       0.94159507      1.79725303      0.88085283
H       0.94157545      1.79725869     -0.88085180
H       2.42790274      1.42186073     -0.00001696
H       2.79848406     -0.79436738      0.00001146
H      -0.49712199     -1.51270020     -0.00001202
H      -1.19376249      1.37560834      0.00000784
H      -2.78821773     -1.02959488      0.00000356
