14
b3lypvtz=-169700.38861521
C      -2.29995184     -0.30443056      0.00233629
C      -1.12204715      0.61345418     -0.32572571
C       0.12555514      0.27485399      0.45581045
C       1.45909852      0.87102340      0.06076061
C       1.84880438     -0.36573210     -0.24762698
O       0.68927080     -1.05334610      0.06094552
H      -2.57687964     -0.23391701      1.05640383
H      -3.17679887     -0.04008214     -0.58987925
H      -2.05012964     -1.34409191     -0.21028177
H      -1.38035766      1.65358485     -0.10231730
H      -0.88496917      0.56862711     -1.39091476
H      -0.06247682      0.24625978      1.53150043
H       1.88838107      1.85587792      0.05454016
H       2.72031788     -0.88717040     -0.61554152
