17
b3lypvtz=-158017.11369772
C       1.74679286     -1.27031343      0.07430073
C       0.97948606      0.00625491     -0.30728139
C       1.78807259      1.25491944      0.07886554
C      -0.39216712      0.02859664      0.31125656
C      -1.53367178      0.00643603     -0.37827302
N      -2.82544279     -0.08303881      0.14599405
H       2.73801502     -1.28756338     -0.38506619
H       1.88216844     -1.33035816      1.15750212
H       1.20630054     -2.16283287     -0.24289540
H       0.85573542      0.00915038     -1.39550669
H       1.27795766      2.16650109     -0.23502071
H       1.92553467      1.30649791      1.16231029
H       2.77932096      1.24119624     -0.38025661
H      -0.43035590      0.04461694      1.39948042
H      -1.50805214     -0.01245261     -1.46347996
H      -2.89718942      0.13910575      1.12810705
H      -3.53031007      0.40021494     -0.38897878
