20
b3lypvtz=-148715.83788571
C       3.17898046     -0.52947218      0.09446633
C       1.90229233      0.22106540     -0.28307812
C       0.64162395     -0.37208514      0.34854460
C      -0.64162398      0.37208547     -0.02319883
C      -1.90229160     -0.22106257      0.60842783
C      -3.17898097      0.52946997      0.23087768
H       3.33652668     -0.52134125      1.17541785
H       4.05860081     -0.08214715     -0.37152339
H       3.13121621     -1.57378622     -0.22254649
H       1.99458382      1.27014145      0.01530056
H       1.79094622      0.22567273     -1.37196413
H       0.55008480     -1.42235583      0.05016796
H       0.75386788     -0.37740160      1.43846277
H      -0.75386966      0.37739867     -1.11311684
H      -0.55008377      1.42235700      0.27517450
H      -1.99458123     -1.27014100      0.31005690
H      -1.79094562     -0.22566170      1.69731389
H      -3.33652650      0.52133154     -0.85007389
H      -3.13121912      1.57378621      0.54788359
H      -4.05860070      0.08214620      0.69686979
