12
b3lypvtz=-189835.13090601
C       1.13497932      1.45810159     -0.00476352
C       0.13026939      0.34867041      0.00591007
C      -1.22780461      0.54445492      0.02199939
N      -2.15715055     -0.42485788      0.01842484
N       0.51536628     -0.97849184      0.00112965
O       1.73074508     -1.19087386     -0.01452207
H       0.64590386      2.43209646      0.00721414
H       1.77188906      1.39603853     -0.88938756
H       1.79986713      1.38770172      0.85823209
H      -1.61792936      1.55524639      0.03381543
H      -3.13460970     -0.21162642      0.06584665
H      -1.85370489     -1.38515701      0.02160089
