13
b3lypvtz=-179757.18039955
C      -2.28269439     -0.39929758      0.00000002
C      -1.17997393      0.60369891      0.00000002
C       0.14451015      0.36193425      0.00000002
C       1.20919040      1.41368158      0.00000002
N       0.52448920     -1.01325131      0.00000002
O       1.72740209     -1.20486677      0.00000002
H      -2.92266890     -0.24870413     -0.87442621
H      -2.92266890     -0.24870413      0.87442625
H      -1.91251145     -1.41927695      0.00000002
H      -1.48921152      1.64504274      0.00000002
H       0.76823160      2.40888792      0.00000002
H       1.85494432      1.31024073     -0.87352237
H       1.85494432      1.31024073      0.87352242
