15
b3lypvtz=-180524.27295531
C      -2.30600387     -0.54091757      0.06726684
C      -1.28595659      0.55905676      0.08858081
C       0.03751050      0.43682793     -0.07920566
C       0.98284633      1.59931430     -0.01505272
N       0.63503845     -0.78719680     -0.45156202
O       1.77570553     -1.10504495      0.37842593
H      -1.88649134     -1.51455513      0.33309682
H      -2.77787066     -0.65101194     -0.91461844
H      -3.10639380     -0.33394263      0.78006038
H      -1.67029551      1.56398145      0.21364077
H       1.54049367      1.69626223     -0.95038464
H       1.71193317      1.46367392      0.78440247
H       0.43890987      2.52432411      0.16554793
H      -0.00167212     -1.56392457     -0.32261193
H       2.48645038     -1.20632611     -0.26298555
