12
b3lypvtz=-145631.50489469
C      -3.12929122     -0.34214807     -0.00000044
C      -1.99366691      0.05768384     -0.00000070
C      -0.67462252      0.56765601     -0.00000114
C       0.43712797     -0.19160708     -0.00000026
C       1.77700403      0.35031970     -0.00000078
C       2.88703705     -0.39373440     -0.00000004
H      -4.12697102     -0.70380560     -0.00000312
H      -0.57678345      1.64936374     -0.00000213
H       0.33786880     -1.27193108      0.00000089
H       1.86212794      1.43303839     -0.00000181
H       3.87025953      0.05553390     -0.00000105
H       2.84165782     -1.47602436      0.00000157
