13
b3lypvtz=-184798.084642
C       1.19821281     -1.37503652      0.00000177
C       0.70638981     -0.13272339     -0.00000995
C       1.59660857      1.08127653     -0.00001222
C      -0.74006178      0.09542295     -0.00001803
C      -1.38630778      1.25707737     -0.00000240
F      -1.47821097     -1.04310246      0.00000283
H       2.26589799     -1.54745363      0.00001107
H       0.55350245     -2.24092438     -0.00000048
H       2.64361786      0.78424781     -0.00000246
H       1.41932435      1.70426117      0.87933264
H       1.41933718      1.70424855     -0.87936869
H      -2.46545483      1.28350791      0.00002285
H      -0.84647765      2.18947008      0.00000209
