10
b3lypvtz=-189090.5521979
C       2.09117780      0.01040609      0.00003649
C       0.60865921      0.07410196      0.00003120
C      -0.27446621      1.10834470      0.00004275
N      -1.53470197      0.56319553      0.00010468
N      -1.49577509     -0.67963246     -0.00005774
O      -0.07956452     -1.06371360     -0.00015698
H       2.45232904     -0.52290825     -0.88051802
H       2.51399588      1.01286136     -0.00000132
H       2.45231505     -0.52283113      0.88064535
H      -0.10840419      2.16954680      0.00002059
