11
b3lypvtz=-179049.45138836
C      -1.03507647     -0.96942060      0.01612233
C       0.39359260     -1.01704791      0.02194305
C       0.82227126      0.28656593     -0.00301027
N      -0.26172998      1.10923830     -0.02335246
C      -1.41536151      0.34385664     -0.01176591
O       2.05336336      0.86714399     -0.01057848
H      -1.69988294     -1.81632010      0.03102848
H       1.01801205     -1.89430183      0.04186468
H      -0.20857688      2.11163584     -0.04347432
H      -2.38668476      0.80407011     -0.02438796
H       2.72007327      0.17457963      0.00561089
