11
b3lypvtz=-199900.02309719
C       2.19586165     -0.78186771     -0.00001426
O       1.72280376      0.58040053     -0.00001482
C       0.41469406      0.76427003      0.00004370
N      -0.43093025     -0.19486504      0.00006164
N      -1.73085858      0.33748822      0.00013419
N      -2.57865277     -0.56315988      0.00010667
H       3.27900141     -0.70938467     -0.00010528
H       1.84002801     -1.30335784      0.88665770
H       1.83987556     -1.30341484     -0.88659182
H       0.13839632      1.81614014     -0.00003077
H      -3.48348116     -0.07742195      0.00002207
