13
b3lypvtz=-177365.61666916
C      -2.63101755     -0.64395687      0.02137250
N      -1.79070861      0.14677015     -0.48468597
C      -0.73865711      0.67043515      0.38011893
C       0.60872056      0.42299319     -0.23006937
N       1.51713298     -0.16506178      0.43319260
N       2.76418590     -0.29049053     -0.12939504
H      -3.42713743     -1.04646881     -0.60171268
H      -2.61132424     -0.95796931      1.07238991
H      -0.90240577      1.75202783      0.45465111
H      -0.75722642      0.24935326      1.39213280
H       0.76352646      0.76964904     -1.25702260
H       3.23547076     -1.09478747      0.25492010
H       2.77349748     -0.29893586     -1.14665429
