11
b3lypvtz=-176608.2072372
C      -0.29466282      1.15505091     -0.08312663
C      -1.25379655      0.24144454      0.03069566
N      -0.93835059     -1.10977224      0.12927487
N       0.39532198     -1.56537422      0.11244682
C       1.28467434     -0.66105838      0.00230408
N       1.06059572      0.70004844     -0.10012054
H      -0.47446850      2.21246232     -0.16301304
H      -2.30105749      0.50114722      0.05141610
H      -1.62401860     -1.82969371      0.21660422
H       2.31904070     -0.98165450     -0.01341518
H       1.82672183      1.33739964     -0.18306635
