15
b3lypvtz=-180527.80984971
C      -2.66489805      0.05920303      0.15841456
O      -1.37655451      0.37822567     -0.31930272
C      -0.38187260     -0.51963053      0.13805433
C       0.93699939     -0.12941921     -0.46625726
C       1.83248778      0.84627238      0.19201412
N       2.12338701     -0.59543174      0.26423999
H      -2.98119404     -0.93980428     -0.16864729
H      -3.35472483      0.79809351     -0.24579809
H      -2.70931592      0.09315089      1.25456576
H      -0.63862675     -1.54932917     -0.15109935
H      -0.30266639     -0.49627178      1.23291440
H       0.96266394     -0.16103882     -1.55052970
H       1.53270029      1.29718238      1.12996961
H       2.45247016      1.47363503     -0.43687537
H       2.86442951     -0.84168335     -0.38204598
