16
b3lypvtz=-196389.67570648
C      -3.04656719     -0.30086771      0.03630333
C      -1.77736712      0.53894530      0.01972301
N      -0.58792301     -0.30808900     -0.00664684
C       0.66620942      0.42863935     -0.06520327
C       1.83185769     -0.53061806      0.08729295
F       3.03302220      0.17259390      0.00288704
H      -3.93116019      0.33492770      0.08974026
H      -3.04993311     -0.97512488      0.89315387
H      -3.13007218     -0.90603594     -0.86991309
H      -1.80924590      1.24194661     -0.82905962
H      -1.72856184      1.15065253      0.92455294
H      -0.64952345     -0.94260884     -0.79564146
H       0.68872274      1.14113261      0.76270759
H       0.79804935      1.01060210     -0.99094652
H       1.83387485     -1.28300132     -0.70650284
H       1.79609674     -1.03509636      1.05349567
