12
b3lypvtz=-192262.1099094
O      -0.17498691      1.57451876      1.54466045
C      -0.33503043      0.81922355      0.62692380
C      -1.18451679     -0.43463103      0.41270962
C       0.02126484     -0.97614743     -0.41415503
C       0.55646980      0.48859245     -0.56940557
O       1.91937336      0.78483675     -0.49196113
H      -1.48164357     -0.96551066      1.31446798
H      -2.06566478     -0.24018149     -0.19972898
H       0.69745082     -1.56892378      0.19930179
H      -0.20369954     -1.50432739     -1.33671679
H       0.14504037      0.92253679     -1.48678853
H       2.10614283      1.09991347      0.40079239
