13
b3lypvtz=-156458.70205810945
C       1.64432764     -0.77770470     -0.09909285
C       0.29579779     -1.15940446     -0.18964682
C      -0.43419151      0.02832420     -0.04724247
N      -1.90777481      0.08917346      0.02329872
H      -2.28717049     -0.03549256      0.96877391
H      -2.23729630      0.99064875     -0.32315870
H      -2.31614098     -0.63441660     -0.56910842
C       0.40717273      1.13025810      0.15710952
C       1.71196293      0.61268730      0.11135501
H       2.48798829     -1.44390068     -0.19802360
H      -0.09549888     -2.15509424     -0.34456246
H       0.11443968      2.15970956      0.30903257
H       2.61638390      1.19521187      0.20126560
