15
b3lypvtz=-157241.6846786
C       2.67524922      0.67811802     -0.01631563
N       1.86678413     -0.16836702     -0.48132471
C       0.81446532     -0.66949183      0.39701120
C      -0.53807585     -0.45817180     -0.22017304
C      -1.55657906      0.14214005      0.38438211
C      -2.91748519      0.34131119     -0.20813836
H       2.63009658      1.05823193      1.01258383
H       3.46899336      1.06514462     -0.65214428
H       0.85443316     -0.21900545      1.39879605
H       0.99222387     -1.74536928      0.50923147
H      -0.65240479     -0.83543204     -1.23201783
H      -1.41349311      0.52456515      1.39244270
H      -3.68685958     -0.14654256      0.39704549
H      -3.17808400      1.40268964     -0.24710691
H      -2.97657808     -0.06063862     -1.21992108
