12
b3lypvtz=-166548.08426234
C       1.86570761     -0.90629792      0.23232622
N       0.78706248     -0.67326016     -0.38277929
C       0.02957663      0.47001890     -0.07718163
C       0.52996184      1.71201048     -0.06694179
C      -1.41622968      0.23121184      0.13101063
N      -2.02586868     -0.87699207      0.04542352
H       2.45985049     -1.77219174     -0.04830368
H       2.23727881     -0.27576733      1.04636933
H       1.57093420      1.91131316     -0.27847868
H      -0.11839035      2.56017155      0.10384256
H      -1.99278901      1.12189564      0.38557601
H      -1.36874134     -1.61815933     -0.21105120
