13
b3lypvtz=-179796.40530767
O       1.84237234     -0.39200469     -0.44627941
C       0.80697592      0.18502470      0.34527885
C      -0.26425228     -0.84684310      0.75337934
C      -1.36213640     -0.54879377     -0.23838489
N      -1.25496869      0.53966271     -0.88296361
C      -0.02745162      1.22242544     -0.43775277
H       1.45878913     -0.71408251     -1.26951452
H       1.31885425      0.61822438      1.20171772
H       0.11460138     -1.86878265      0.70523343
H      -0.62563641     -0.68398630      1.77398970
H      -2.21506603     -1.20338846     -0.39754716
H      -0.31563846      2.07423157      0.18479160
H       0.52365689      1.61851269     -1.29194828
