8
b3lypvtz=-185917.5981084
C       1.11135912     -0.29477206     -0.18982304
N       0.02861658     -1.03670352     -0.37907454
C      -1.09242439     -0.39127041     -0.08702686
N      -1.16800755      0.86699985      0.35199130
N      -0.04239697      1.53597537      0.51328627
N       1.11739400      0.96710336      0.24530252
H       2.07941307     -0.73363717     -0.40098254
H      -2.03395382     -0.91369543     -0.20920815
