14
b3lypvtz=-169723.27114978
C       2.24141386     -0.75606052     -0.19655184
C       1.24371460     -0.12756394      0.41148825
C      -0.03960219      0.29275965     -0.25303770
C      -0.28053994      1.80905414     -0.10863525
C      -1.20834995     -0.44743701      0.37409353
O      -2.01778316     -1.09415671     -0.23601179
H       3.14492968     -1.02694727      0.33337000
H       2.19192136     -1.01959852     -1.24636304
H       1.33460520      0.11842687      1.46662589
H      -0.02005938      0.01931219     -1.30887007
H       0.54995197      2.36254204     -0.54646891
H      -0.35866899      2.09806708      0.94174254
H      -1.20022533      2.10678489     -0.61322754
H      -1.28441075     -0.34056587      1.47883093
