12
b3lypvtz=-187451.26795306
N       2.79253497     -0.45942457     -0.09242020
C       1.52416709     -0.38921396     -0.14838432
N       0.70749271      0.66766202      0.21339804
N      -0.64394371      0.74110167     -0.17496386
C      -1.37794241     -0.20665926      0.26242401
N      -2.67615029     -0.35531981     -0.14968302
H       3.20993641      0.40346599      0.26033780
H       0.96214501     -1.25540203     -0.49609826
H       1.13459009      1.58032250      0.17519119
H      -1.01593182     -0.97683517      0.94434085
H      -3.31046277     -0.79806977      0.49375332
H      -3.06159028      0.42428438     -0.66114855
