11
b3lypvtz=-204947.92639207
C       2.61166956     -0.17961176     -0.00003401
C       1.19334878      0.26845872     -0.00000989
N       0.23116325     -0.56703656     -0.00005339
C      -1.08644264     -0.11011730     -0.00002244
N      -2.12232439     -0.81283885     -0.00003830
F      -1.23972491      1.23490607      0.00007589
H       2.67933169     -1.26476033     -0.00009279
H       3.13027807      0.22179159      0.87524547
H       3.13027813      0.22188669     -0.87526986
H       1.01247138      1.34536282      0.00004593
H      -1.85652291     -1.79417310     -0.00010362
