11
b3lypvtz=-176593.73086346
C       2.64646666     -0.50074538      0.00000691
C       1.63366885      0.36491676      0.00002175
N       0.31351337     -0.07286888      0.00010319
C      -0.63192276      0.76652820      0.00012511
N      -2.02926176      0.36206726     -0.00000451
N      -2.27227702     -0.85123101      0.00005542
H       3.67099237     -0.15798826      0.00002197
H       2.46025171     -1.56581856     -0.00000892
H       1.81419300      1.43971928     -0.00001735
H      -0.50737059      1.84970266      0.00003718
H      -1.38336583     -1.39967306     -0.00002075
