17
b3lypvtz=-157996.55664423
C       1.46295420     -1.26404401     -0.04790645
C       0.67370823      0.00000248      0.28108620
C       1.46294402      1.26405517     -0.04790698
N      -0.57509143     -0.00000285     -0.48768691
C      -1.69216742     -0.74331136      0.07804389
C      -1.69217211      0.74330055      0.07804103
H       2.39799874     -1.29301073      0.51371157
H       0.89189216     -2.16021260      0.19959729
H       1.69722183     -1.29585617     -1.11321174
H       0.44940423      0.00000183      1.36186269
H       0.89187480      2.16021928      0.19959641
H       2.39798825      1.29302957      0.51371115
H       1.69721159      1.29586886     -1.11321223
H      -1.54317583     -1.23401252      1.03559058
H      -2.30283770     -1.29466911     -0.62593383
H      -1.54318427      1.23400619      1.03558601
H      -2.30284630      1.29465143     -0.62593869
