13
b3lypvtz=-179801.72778028
C       2.91801565      0.27498316      0.07030394
N       1.66347687     -0.43057209     -0.10563263
C       0.45445091      0.17112008     -0.05686495
C      -0.75785979     -0.43020178      0.00017092
C      -1.95975482      0.36801069      0.00131325
O      -3.09785085     -0.05840571      0.05251450
H       3.71070572     -0.23580221     -0.47541102
H       3.21512097      0.35409602      1.12117447
H       2.82703877      1.28132298     -0.33652823
H       1.68432266     -1.43219949     -0.00254419
H       0.49638042      1.25614919     -0.09173918
H      -0.86255108     -1.50808367      0.04620322
H      -1.77634744      1.46610684     -0.04687011
