13
b3lypvtz=-179796.56394207
C      -2.06302342      0.02598590     -0.21344467
N      -1.01589288      1.01837513     -0.04318063
C       0.20428046      0.68191947      0.02835721
C       0.77772316     -0.66942646     -0.03996360
C       2.07859592     -0.93595842      0.04538538
O       1.13857773      1.65825705      0.18860019
H      -3.02340781      0.53740845     -0.25100495
H      -1.95579162     -0.54150807     -1.14362869
H      -2.10257524     -0.68779312      0.61583935
H       0.06736434     -1.47441591     -0.16819905
H       2.80774818     -0.14862512      0.17400140
H       2.44387730     -1.95271295     -0.01186792
H       0.64252388      2.48849405      0.21883512
