15
b3lypvtz=-208858.80630914
C      -2.21337050     -0.60885590     -0.21707099
O      -1.28886272      0.27401787      0.38990686
C      -0.00065306      0.30709377     -0.21964163
C       0.58276111      1.69462410     -0.02352733
C       0.86705923     -0.77706272      0.41365884
F       2.08798706     -0.86090752     -0.25895994
H      -3.14351469     -0.52889860      0.34268654
H      -2.40153009     -0.33182712     -1.26093639
H      -1.88034595     -1.65232635     -0.18953591
H      -0.08912304      0.09178513     -1.29209095
H      -0.01911107      2.43911873     -0.54361387
H       0.59820448      1.94628359      1.03825730
H       1.60231892      1.73481372     -0.40677700
H       1.07072059     -0.54100075      1.46005175
H       0.38788272     -1.75504997      0.35098072
