13
b3lypvtz=-156490.66717736
C       2.15517257      0.00241843     -0.04290225
C       0.82020283      0.04262775      0.02545854
C      -0.05860534      1.20158390      0.05549693
C      -1.33598523      0.78128265     -0.01038636
N      -1.45037432     -0.59538146     -0.15204058
C      -0.10677930     -1.16857997      0.06288751
H       2.69674934     -0.93367216     -0.07341131
H       2.74173088      0.91065191     -0.06939043
H       0.26765458      2.22843146      0.06778100
H      -2.23101906      1.38626081     -0.01286258
H      -2.21847955     -1.04396576      0.32251985
H       0.13323255     -1.90337284     -0.70594368
H      -0.05093396     -1.66539673      1.03696936
