10
b3lypvtz=-212346.78905512
C      -2.11371517      0.90952317      0.46785005
N      -0.85439846      0.77481856      0.51864904
O      -0.46792875     -0.44126174     -0.03925361
N       0.93576154     -0.53048117      0.04520630
C       1.33109879     -1.62592121     -0.45442768
O       2.63862017     -1.93748610     -0.48750814
H      -2.78007055      0.16367797      0.04184701
H      -2.51242011      1.82653143      0.87876225
H       0.69149825     -2.38816427     -0.88559307
H       3.13155433     -1.20715369     -0.08553215
