15
b3lypvtz=-178130.83489805
C       2.94866633     -0.04580185     -0.13579818
N       1.57761303     -0.52304287     -0.01726048
C       0.60453374      0.54880173      0.18350467
C      -0.76400832     -0.01250653      0.40828962
N      -1.73646852      0.31539718     -0.34128225
N      -2.98725806     -0.16434944     -0.03971664
H       3.61194870     -0.88643712     -0.34083890
H       3.09653299      0.70982877     -0.92322153
H       3.26265765      0.39932833      0.81082285
H       1.32398197     -1.04794352     -0.84576233
H       0.55672110      1.26987682     -0.64490324
H       0.91699472      1.10448987      1.07557622
H      -0.88366606     -0.71878032      1.23771233
H      -2.99628513     -1.04446410      0.47060274
H      -3.55170114     -0.20883596     -0.87391688
