18
b3lypvtz=-147947.72189965
C      -3.01281552     -0.35069658     -0.11321168
C      -1.85506440      0.63573608      0.09175519
C      -0.54836484     -0.04609523      0.37268225
C       0.54836414      0.04609498     -0.37268144
C       1.85506464     -0.63573631     -0.09175489
C       3.01281550      0.35069697      0.11321117
H      -3.14168226     -0.99292209      0.76059341
H      -3.95365204      0.17667444     -0.27999433
H      -2.82763239     -0.99562197     -0.97365583
H      -2.10419450      1.29762624      0.92865133
H      -1.75225993      1.27445603     -0.78887030
H      -0.52400623     -0.67594870      1.26062510
H       0.52400583      0.67594869     -1.26062489
H       1.75226070     -1.27445626      0.78887081
H       2.10419410     -1.29762642     -0.92865147
H       2.82763240      0.99562252      0.97365528
H       3.95365230     -0.17667368      0.27999358
H       3.14168150      0.99292226     -0.76059429
