14
b3lypvtz=-193012.94514424
C      -1.69812835     -0.92238287      0.00605003
C      -0.42689790     -0.11845092     -0.07677601
C       0.85776183     -0.92993232     -0.11686864
O       2.01857881     -0.12893284     -0.04067249
C      -0.43435529      1.24659470     -0.60538864
O      -0.34523126      1.01181996      0.81478780
H      -2.56480105     -0.26678153      0.07524265
H      -1.68714109     -1.56919353      0.88560560
H      -1.81195120     -1.55558705     -0.87661771
H       0.82842348     -1.66149939      0.70262741
H       0.91309169     -1.48857394     -1.05345445
H       1.87834372      0.48670889      0.69021497
H       0.46468891      1.65001211     -1.05589956
H      -1.37103529      1.68468273     -0.93402097
