11
b3lypvtz=-155632.02691305
C      -0.25186989     -0.75525174      0.69955627
C      -0.75843736      0.64987702      0.35444444
C      -0.82838660     -0.46004595     -0.65712209
N       0.54155172     -0.10926772     -1.23966776
C       1.13067566     -0.37209357      0.12040272
C       0.64046679      0.98772890     -0.21358301
H      -0.57947386     -1.42569303      1.47779123
H      -1.53640515      1.22867372      0.82581478
H      -1.64757350     -0.89184617     -1.21286697
H       2.12808844     -0.76679175      0.25191918
H       1.16136374      1.91471029     -0.40668878
