14
b3lypvtz=-169724.32360239
C       2.57865253      0.37895056      0.03453050
C       1.11244272      0.66300770     -0.04909205
C       0.17499933     -0.22958502     -0.38457551
C      -1.24522538      0.04163363     -0.46656067
C      -2.15241564     -0.88091766     -0.80609069
O      -3.49697101     -0.70145396     -0.90382411
H       3.14866086      1.01728683     -0.64754574
H       2.79951435     -0.65993322     -0.21399948
H       2.96692151      0.57522005      1.03869260
H       0.80361986      1.67901970      0.18432318
H       0.48439707     -1.24594410     -0.61801482
H      -1.57781365      1.05165277     -0.23766478
H      -1.88074257     -1.90144361     -1.04432042
H      -3.71603998      0.21250635     -0.68788562
