14
b3lypvtz=-195607.23158953
F       2.65251780     -0.10141732      0.24373526
C       1.46761963      0.38186878     -0.31216256
C       0.32195037     -0.53600408      0.07417051
N      -0.91312571     -0.05066160     -0.52526640
C      -2.15237865     -0.55241781      0.05184450
C      -1.72384943      0.84968407      0.29027847
H       1.31119058      1.39488540      0.06453239
H       1.58717757      0.41778731     -1.39555899
H       0.26484705     -0.60414513      1.17125108
H       0.52491453     -1.53813056     -0.30928962
H      -2.94471919     -0.77136769     -0.65266323
H      -2.07948867     -1.24115834      0.88778206
H      -2.19986529      1.66602085     -0.23770031
H      -1.36364857      1.09423613      1.28506783
