13
b3lypvtz=-156448.6900817
C      -2.40203089     -0.19305771     -0.01080941
C      -1.21348894     -0.02517458     -0.02383495
C       0.21544771      0.17418288     -0.00613577
N       0.59870589      1.57050966     -0.08175006
C       1.04544600     -0.84055184      0.77443480
C       1.07975462     -0.82680915     -0.73043291
H      -3.45305524     -0.33906843     -0.01159303
H       0.32818948      2.05628579      0.76622336
H       1.60258839      1.65950593     -0.17889266
H       1.90205057     -0.44781084      1.30596644
H       0.53177253     -1.65296293      1.26876557
H       1.96169197     -0.43549533     -1.22106930
H       0.58692192     -1.62513744     -1.26536107
