11
b3lypvtz=-176635.6064531827
C      -1.41061018     -0.60108422      0.01207375
C      -0.13976623     -0.52621785      0.43574409
N       0.79681572      0.23351518     -0.27328814
C       1.98152571      0.42713222     -0.09569175
N       3.19944944      0.56722286     -0.09483425
N      -1.90496643     -0.03881133     -1.14660895
H      -2.11447224     -1.19485291      0.57920089
H       0.18266516     -1.06298616      1.31709580
H       3.59748680      1.32911369      0.44105791
H      -1.30910084      0.65435274     -1.57329453
H      -2.87902690      0.21261579     -1.14232343
