13
b3lypvtz=-179792.45342243483
C      -0.27215499     -0.78115198     -0.33893308
C       1.09081322     -0.08798574     -0.43363451
N       1.61525156      0.22157610      0.89898091
C      -1.31884875      0.04081194      0.38602100
C      -2.35084503      0.58617042     -0.20578236
O      -3.27042039      1.06341182     -0.73729959
H      -0.14447395     -1.72697861      0.19269265
H      -0.61982651     -1.01984858     -1.34573369
H       1.78978693     -0.77465773     -0.91703305
H       0.99852808      0.79184876     -1.08534001
H       2.59472594      0.47222226      0.84555716
H       1.13461884      1.02607985      1.28496439
H      -1.24715494      0.18850148      1.45554014
