12
b3lypvtz=-166556.94316499
C      -2.93770138      0.19487832      0.00000771
C      -1.77048333     -0.45176921     -0.00001791
C      -0.49704963      0.24141281     -0.00003675
N       0.61676903     -0.38789256     -0.00006447
C       1.78529473      0.38904195     -0.00007316
N       2.95783438     -0.08625270      0.00004447
H      -3.88088797     -0.33346156      0.00012503
H      -2.98248303      1.27749781     -0.00007987
H      -1.72413197     -1.53405986     -0.00002755
H      -0.53529260      1.33911120     -0.00005707
H       1.65807744      1.47774658      0.00007881
H       2.90713134     -1.10780377      0.00000377
