10
b3lypvtz=-215019.00684323
N      -0.85627940      1.35522681     -0.40996181
C      -0.82338361      0.11034291     -0.16267976
N      -1.75047670     -0.66521750      0.50778896
N       0.25727259     -0.68533858     -0.62394290
C       1.43039009     -0.51080610     -0.24912230
F       1.83323333      0.37823994      0.66940670
H      -1.73165553      1.77373222     -0.10197955
H      -1.74027380     -1.64903260      0.29229988
H      -2.66912303     -0.26941725      0.62028446
H       2.26814306     -1.08418084     -0.63004867
