16
b3lypvtz=-168079.60448545
C      -2.88381576     -0.37624272      0.00577987
N      -1.43528176     -0.38631361      0.00454200
C      -0.82505819      0.71819815     -0.00856443
C       0.66966926      0.83322022     -0.02073333
C       1.42288890     -0.48972709      0.02407723
N       2.86689488     -0.24559194     -0.08564181
H      -3.24846046     -0.92442348     -0.86546926
H      -3.31687761      0.63377434     -0.00387375
H      -3.24725400     -0.90749113      0.88797240
H      -1.37416786      1.67342032     -0.01750694
H       0.97253556      1.39212369     -0.91308558
H       0.96782420      1.46780087      0.82416586
H       1.11483805     -1.10236238     -0.82370102
H       1.12896390     -1.04224489      0.92439827
H       3.36547424     -1.12490096     -0.15227443
H       3.21156564      0.21293663      0.75084693
