14
b3lypvtz=-146406.71116678
C       2.45676194     -0.27593998     -0.10876184
C       1.22291345     -0.60841722      0.26312318
C      -0.00000052      0.17828276     -0.00000175
C      -0.00000220      1.51784506     -0.00000764
C      -1.22291247     -0.60842269     -0.26311985
C      -2.45676197     -0.27594495      0.10876139
H       3.30452130     -0.90127918      0.13701350
H       2.65697936      0.62295335     -0.67831544
H       1.07255198     -1.54913124      0.78549609
H      -0.88519561      2.08038487     -0.26309608
H       0.88518979      2.08038936      0.26307597
H      -1.07254847     -1.54914102     -0.78548423
H      -2.65698184      0.62295320      0.67830650
H      -3.30451973     -0.90128833     -0.13700881
