11
b3lypvtz=-179021.46188048
C       0.66795964      1.57191039     -0.06128213
C       0.21543038      0.13240805     -0.03938824
C      -1.22599451     -0.06286349     -0.02315001
N      -2.37022417     -0.18311640     -0.02411544
C       1.04587566     -0.95646462     -0.58521147
O       0.93884306     -0.75430366      0.82316202
H       0.27932991      2.08294453     -0.94282587
H       1.75579304      1.61204520     -0.07546540
H       0.30881672      2.09531843      0.82496177
H       0.57283744     -1.85543319     -0.96390577
H       2.00412581     -0.69760324     -1.02351646
