11
b3lypvtz=-176617.44499869
C      -1.96500313     -0.77355268     -0.00012594
N      -1.40740412      0.36666902     -0.00003113
C       0.00895833      0.45125336     -0.00004318
N       0.59085566      1.57642452      0.00003725
N       0.72143615     -0.78845065     -0.00004677
C       1.98679671     -0.74736595     -0.00008487
H      -3.05159025     -0.81027641      0.00005873
H      -1.40974604     -1.71059798      0.00002915
H      -0.11137241      2.31428958      0.00005371
H       2.55029049      0.18707554      0.00004626
H       2.53456162     -1.68674235      0.00004078
