11
b3lypvtz=-178971.55062407
C      -0.85216676      0.24446799      0.87422760
C       0.18067086      0.92139842     -0.05884854
C       0.76327610     -0.47557870     -0.33335555
N       1.78842101     -1.16818644     -0.50576308
C      -0.75115301     -0.62514187     -0.40306787
O      -0.73744471      0.64240837     -1.20073702
H      -1.78828193      0.79236006      0.95761950
H      -0.50566167     -0.17685044      1.81765919
H       0.63904733      1.90403922     -0.00299861
H       2.64042527     -0.61922964     -0.39331236
H      -1.37713248     -1.43968699     -0.75142325
