11
b3lypvtz=-199915.5425109
C      -2.00312434      0.21729290     -0.25926261
N      -0.75156159     -0.50509955     -0.31145566
N       0.38178496      0.13027461     -0.34987253
N       1.40065081     -0.62508050     -0.39456046
C       2.57489894      0.15490399     -0.43299042
O       3.67230679     -0.33137126     -0.47798022
H      -1.77397889      1.27929624     -0.25996187
H      -2.62334276     -0.01613215     -1.12628888
H      -2.55673837     -0.02935382      0.64821137
H      -0.71344552     -1.52107017     -0.32182681
H       2.39255000      1.24633973     -0.41856225
