16
b3lypvtz=-147168.0853793
C      -2.23742127     -0.73301456     -0.26937215
C      -1.61554619      0.21913690      0.41743601
C      -0.15121424      0.41963282      0.53723630
C       0.60583543      1.22597619     -0.50697300
C       0.85540330     -0.24956321     -0.35470786
C       2.16093489     -0.75554452      0.21116360
H      -3.31752334     -0.77982436     -0.30933897
H      -1.69761513     -1.49867405     -0.81235669
H      -2.21927652      0.94822456      0.95236923
H       0.18074785      0.59973479      1.55491152
H       0.04782203      1.56252968     -1.36987400
H       1.36736583      1.91336541     -0.16173363
H       0.44356385     -0.86523937     -1.14488264
H       2.93136854     -0.81165707     -0.56121702
H       2.53044752     -0.09468034      0.99803626
H       2.04681146     -1.75249888      0.64253304
