15
b3lypvtz=-180533.88353900352
C       2.37962546     -0.24925030     -0.05994637
C       1.16459535      0.64770184     -0.27718887
C      -0.16257814     -0.10974601     -0.21541757
O      -0.18873705     -1.35704358     -0.00510169
C      -1.34992688      0.57400788     -0.39121017
N      -2.48835379     -0.36708197     -0.28972163
H      -2.37368503     -1.12468475     -0.97308159
H      -3.38875445      0.08749491     -0.41050080
H      -2.45163193     -0.85869604      0.61084911
H       2.33308136     -0.74109824      0.91103111
H       2.42562812     -1.03520560     -0.81293798
H       3.30135241      0.33352719     -0.11019434
H       1.14699958      1.44499051      0.47149146
H       1.23536998      1.15008115     -1.24634741
H      -1.58298498      1.60500301     -0.57748102
