12
b3lypvtz=-189847.36119743
C       1.29054202      1.34657169      0.00000271
C       0.87870498     -0.08305335      0.00000359
O       1.94156176     -0.92180216      0.00000670
C      -0.39000052     -0.54432908     -0.00000530
N      -1.45644692      0.33940493     -0.00002864
N      -2.58271838     -0.21090905     -0.00003238
H       1.90438673      1.55315629      0.87927493
H       1.90442363      1.55314275     -0.87924695
H       0.41938637      1.99324470     -0.00001968
H       1.63639172     -1.83779111      0.00001205
H      -0.60934479     -1.61134134     -0.00000250
H      -3.27564160      0.54741774      0.00000046
