14
b3lypvtz=-167304.2745689
C      -0.35343422     -1.16572406     -0.96676148
C      -0.03198885     -0.00828689     -0.04718243
C       1.39556787      0.36352774      0.17854748
N       0.60624572     -0.26193521      1.24808915
C      -1.06160257      1.08543276     -0.01383347
N      -1.44131355      1.73371936      1.00186994
H      -1.25456263     -1.68726877     -0.63645993
H       0.46699087     -1.88470055     -0.99561427
H      -0.52740251     -0.81634189     -1.98673965
H       1.65823121      1.39907778      0.35517732
H       2.15387260     -0.22495849     -0.32589810
H       0.83902266     -1.24439877      1.34468547
H      -1.50624154      1.33123448     -0.98205027
H      -0.94348505      1.38052250      1.82617024
