11
b3lypvtz=-202334.40418979
N       2.16809293     -0.14973062     -0.56373551
C       1.27122111     -0.65994164      0.15693290
C      -0.00272468      0.04932360      0.61560591
O      -0.02849790      1.38552738      0.21344971
C      -1.22245221     -0.69574520      0.10877110
O      -2.06251810     -0.14587787     -0.55764719
H       1.91067857      0.81301545     -0.80099199
H       1.38969111     -1.68619059      0.51216303
H      -0.02954741     -0.02835800      1.71606796
H      -0.83793296      1.50138390     -0.30963141
H      -1.29952545     -1.76406840      0.37828148
