13
b3lypvtz=-203123.77481907
N      -2.65053332     -0.26535963     -0.10003722
C      -1.37166923      0.43143554      0.06605872
C      -0.22630155     -0.56661202     -0.04738712
C       1.13388855      0.07983810     -0.01202745
O       1.35840193      1.26334606     -0.01532401
O       2.12470270     -0.84563663      0.01378876
H      -2.83771007     -0.86296929      0.69752114
H      -3.41093595      0.40212779     -0.14234629
H      -1.27906714      0.98216205      1.01047769
H      -1.27869073      1.16922960     -0.73112173
H      -0.31268665     -1.12882744     -0.98084701
H      -0.26844844     -1.31288855      0.75096400
H       2.96132589     -0.35699457      0.01827553
