9
b3lypvtz=-284113.13878794
O       1.57877817      0.13067983      0.36680906
C       0.49691489     -0.25549554     -0.44364275
C      -0.82998884      0.27550599      0.07455022
F      -1.84623069     -0.16210187     -0.69449825
F      -1.05945172     -0.15504173      1.33753789
F      -0.87827951      1.61529295      0.09627139
H       1.47883552     -0.27344871      1.23527526
H       0.66194980      0.16634963     -1.43382282
H       0.39757238     -1.34164056     -0.53838001
