12
b3lypvtz=-189845.25181806
C       2.74311829      0.21465599      0.02081065
C       1.52448236     -0.12834161     -0.38703157
N       0.33205560      0.13391016      0.30697933
N      -0.65493718     -0.92664290      0.17039021
C      -1.81090654     -0.42673530     -0.03472271
O      -2.12084556      0.86760100     -0.13495718
H       3.59731007      0.04913429     -0.61741271
H       2.92080083      0.68143021      0.98188087
H       1.35950910     -0.60259715     -1.34574341
H       0.50689022      0.27322417      1.29685947
H      -2.65851892     -1.09119657     -0.14821207
H      -1.25900729      1.33062270     -0.08585487
