14
b3lypvtz=-167291.2933117883
C      -0.30450384     -1.57986444      0.04174335
C       0.05157745     -0.12898818     -0.03485862
N       1.36386540      0.21831784     -0.03783535
C       1.97453165      1.39462396     -0.09565730
N      -0.83153220      0.88397506     -0.10203208
C      -2.10716579      0.70764936     -0.10820718
H      -0.89086236     -1.89885744     -0.82765111
H      -0.91221091     -1.80086454      0.92673701
H       0.58208218     -2.21488962      0.08803702
H       1.98503996     -0.57814728      0.01418672
H       3.04909704      1.40194248     -0.08264534
H       1.37950439      2.28714118     -0.15275315
H      -2.75017369      1.57823604     -0.16427323
H      -2.58924927     -0.27027440     -0.06022175
