14
b3lypvtz=-193017.70733246
C       2.23338223     -0.75420827     -0.16766052
C       1.13841758     -0.02985615      0.03894489
O       1.17956972      1.32958615      0.12058901
C      -0.22421275     -0.62018843      0.28478369
O      -1.18610303      0.22563459     -0.33302097
C      -2.52202574     -0.11578493     -0.01769216
H       3.19967132     -0.28425678     -0.27674368
H       2.17426170     -1.83079680     -0.21211956
H       0.27199343      1.64754264      0.01442909
H      -0.42161553     -0.66072342      1.36618202
H      -0.27949835     -1.63835896     -0.11174295
H      -3.16632765      0.60581219     -0.51576174
H      -2.77045609     -1.12140497     -0.37477843
H      -2.70039384     -0.07332885      1.06330431
