12
b3lypvtz=-215579.54787856
C       1.23958152     -0.25721453      0.62072913
C      -0.04564125      0.27094233      0.01360809
O      -0.77163995      0.91731402      1.05863536
O       0.21183388      1.14683515     -1.04015933
C      -0.96257965     -0.85574521     -0.48190470
O      -1.40246799     -0.87987764     -1.60393142
H       1.02754713     -0.90017453      1.47479540
H       1.83282617      0.59114344      0.95959404
H       1.80856807     -0.81425092     -0.12316007
H      -1.37135902      1.54542438      0.63854154
H      -0.32839645      0.84767909     -1.79036463
H      -1.23817246     -1.61207558      0.27351658
