11
b3lypvtz=-199907.0325349
N       2.30928444     -0.14467945     -0.02542670
N       1.24008755     -0.67554721      0.29618179
C       0.08438154      0.17389968      0.05092645
N       0.05927076      1.43182559      0.12187315
C      -1.16892621     -0.60888766     -0.21028370
O      -2.26571254      0.21965781     -0.48073726
H       3.06059011     -0.80705931      0.21473384
H       0.98675137      1.81756876      0.30266130
H      -0.98843477     -1.29232079     -1.05029061
H      -1.35395189     -1.24388518      0.66696853
H      -1.96334037      1.12932776     -0.33680679
