13
b3lypvtz=-203125.41856759
C      -1.45337486      1.15642681     -0.22077018
C      -0.64514125      0.00643525      0.37471534
N      -1.09049675     -1.34138874     -0.02404064
C       0.86047325      0.16303300      0.07170629
O       1.42937038      1.22076172      0.10260294
O       1.48361335     -0.99379450     -0.18894329
H      -2.49128540      1.10689108      0.11016175
H      -1.03009521      2.11279479      0.07911190
H      -1.43697272      1.11295775     -1.31219714
H      -0.70939094      0.05611266      1.46513486
H      -1.79405579     -1.70521180      0.60416311
H      -1.49194168     -1.33023367     -0.95462535
H       0.77561963     -1.67465035     -0.17050259
