15
b3lypvtz=-180535.91771136
O       2.02901300     -0.40521671     -0.46320602
C       1.45782914      0.51863124      0.48620180
N       0.04253246      0.46600313      0.47022302
C      -0.70991787      0.69687799     -0.78582067
C      -1.73262942     -0.36729985     -0.32594256
C      -0.67075926     -0.81182958      0.70584072
H       2.98782658     -0.33908486     -0.42159803
H       1.77231551      1.54015411      0.24325126
H       1.80526772      0.27288995      1.49633101
H      -1.06739194      1.72067521     -0.91180321
H      -0.15885452      0.39027054     -1.67914391
H      -2.03720339     -1.10499050     -1.06395015
H      -2.61512373      0.06861584      0.13810901
H      -0.10516869     -1.68702882      0.37441599
H      -0.99763559     -0.95846769      1.73709174
