9
b3lypvtz=-201566.99898999
C      -0.39310377      0.73109049     -0.37467955
C      -1.42069335     -0.11268409      0.11285441
N      -0.98005420     -1.20509715      0.67756998
O       0.43655950     -1.10488295      0.57186320
C       0.73153527      0.03948421     -0.04824698
O       2.01918067      0.32235042     -0.24676757
H      -0.46679718      1.67750142     -0.87579090
H      -2.48793311      0.04355304      0.06972053
H       2.56130619     -0.39131538      0.11347685
