15
b3lypvtz=-180552.38482125
N      -3.09598236      0.07071046     -0.24775217
C      -1.96129430      0.56520000      0.01962891
C      -0.61537242      0.14776841     -0.50147547
C       0.35141951     -0.26082634      0.61905485
C       1.76549535     -0.53770492      0.11529813
O       2.36949856      0.59072896     -0.51138163
H      -3.00477244     -0.70313557     -0.91144092
H      -1.94630306      1.40301993      0.72416666
H      -0.73567379     -0.67322943     -1.21411074
H      -0.17101224      0.98637768     -1.04649581
H       0.39110693      0.52861129      1.37795523
H      -0.02171862     -1.15528277      1.12667516
H       2.38777446     -0.90446045      0.93930011
H       1.74602084     -1.31658508     -0.64918902
H       2.54091356      1.25870784      0.15966671
