10
b3lypvtz=-191412.95325225
C       0.25805006      0.76689738      0.61248165
C      -0.34433448     -0.66898104      0.66572198
C      -0.72932335     -0.01907557     -0.69693643
C       0.82424942     -0.05393725     -0.58461644
O       0.85630211     -1.31444467      0.14785206
O      -0.85203880      1.32690489     -0.14948856
H       0.74941397      1.37203981      1.36917742
H      -0.94255203     -1.17330229      1.41939152
H      -1.40333410     -0.34159727     -1.48556421
H       1.60526719      0.16759602     -1.30651898
