11
b3lypvtz=-204936.18728369
N       2.45379368     -0.19896924     -0.06671938
C       1.29165822     -0.69664820      0.06403515
C       0.00695150      0.01604124      0.03390658
N       0.02205974      1.40821437     -0.04198246
C      -1.11175921     -0.71699653      0.00213356
F      -2.32590476     -0.12463383     -0.03747205
H       2.40677687      0.80601340     -0.24653617
H       1.21645173     -1.77249236      0.22406464
H       0.66822620      1.84432977      0.60091353
H      -0.89363282      1.82644404      0.02761578
H      -1.15280813     -1.79374066     -0.03549319
