16
b3lypvtz=-170479.10872699
C      -2.71167008      0.49372022     -0.42265439
C      -1.77348664     -0.35114967      0.44910163
C      -0.33136592      0.05416987      0.33360333
C       0.61542065     -0.76500941     -0.12301882
O       1.94209051     -0.52232744     -0.28315380
C       2.41447243      0.76688781      0.06997971
H      -2.63753806      1.55292758     -0.16688872
H      -3.75222552      0.19165186     -0.28882138
H      -2.45980584      0.39039828     -1.47932132
H      -2.09547204     -0.26676137      1.49280829
H      -1.87852244     -1.40624063      0.18331609
H      -0.08601839      1.06694360      0.63068538
H       0.38854620     -1.78008319     -0.42743222
H       2.23607092      0.97686375      1.12875120
H       1.93339200      1.54304753     -0.53246733
H       3.48389120      0.76595421     -0.12533266
