11
b3lypvtz=-199888.78719493
C      -2.08982651     -0.01634158     -0.16329263
N      -0.65784095      0.13873005     -0.32578070
C       0.08088484     -0.34529782      0.55695093
O       1.45017197     -0.30200202      0.58124113
N       2.03319133      0.37273709     -0.53358673
N       3.24139847      0.33871633     -0.38840068
H      -2.37834438     -0.55999830      0.74635728
H      -2.49485732     -0.54534519     -1.02777002
H      -2.55841828      0.96919148     -0.14275299
H      -0.24369970     -0.88177328      1.45302484
H       3.61734054      0.83148323     -1.20609042
