12
b3lypvtz=-189854.45399349
N       1.18211903     -1.30165905      0.01215405
C       1.07942830     -0.04644579      0.05463424
O       2.10761028      0.80141951      0.29250181
N      -0.13420521      0.67456117     -0.14097702
C      -1.36359391      0.00605707      0.33991953
C      -1.08772647      0.07893958     -1.10306697
H       2.13807117     -1.60292177      0.17954215
H       1.74026665      1.69572843      0.26671235
H      -1.22181369     -0.95364315      0.81831602
H      -2.07981663      0.67653281      0.79560110
H      -1.59844830      0.80366592     -1.72285003
H      -0.76189121     -0.83213472     -1.58658723
