15
b3lypvtz=-157215.13508534
C      -2.75239441      0.07020774     -0.19889164
C      -1.63300258     -0.29345253      0.03081740
C      -0.28035286     -0.75637286      0.33425470
N       0.76349975      0.03105650     -0.31931452
C       2.06054878     -0.60744353     -0.16817572
C       0.78748116      1.41075752      0.14252462
H      -3.74149632      0.39162994     -0.41012981
H      -0.15309367     -0.77501094      1.43323802
H      -0.18341751     -1.79085836     -0.00454999
H       2.81313778     -0.03537511     -0.71088778
H       2.03292377     -1.61382583     -0.58798752
H       2.38598786     -0.68303503      0.88463367
H      -0.18645274      1.87150363     -0.01454380
H       1.52779016      1.97142189     -0.42851972
H       1.04283382      1.49708497      1.21347009
