12
b3lypvtz=-166526.41418902
N       1.83587209     -0.88683329     -0.01200845
C       0.83638454     -0.09179218      0.00243089
N       0.88546370      1.28933037      0.05124561
C      -0.53589059     -0.69169947      0.02393366
C      -1.71352329      0.02708472      0.63307437
C      -1.71037486     -0.02419821     -0.65289488
H       2.72212193     -0.38164538     -0.02102624
H       0.05668160      1.79746238     -0.20986209
H       1.75298144      1.72920648     -0.20544944
H      -0.48431068     -1.77506314      0.06544805
H      -2.18407694      0.31726469      1.55501549
H      -2.17982495      0.18658703     -1.59691699
