16
b3lypvtz=-168076.56631675
C      -2.96318498      0.04191383     -0.22789409
N      -1.61785029     -0.50647730     -0.15579627
C      -0.64538722      0.40853654      0.44385934
C       0.72680849     -0.18653199      0.47405696
C       1.76982176      0.33429395     -0.17648860
N       3.04836971     -0.20997782     -0.27224864
H      -3.02870035      1.01239069     -0.74735547
H      -3.62125546     -0.66179235     -0.73856542
H      -3.35474997      0.18579093      0.78189123
H      -1.29535360     -0.76685521     -1.08014159
H      -0.61102111      1.38555000     -0.06969340
H      -0.99208903      0.61331361      1.46384548
H       0.84408211     -1.10738928      1.03806222
H       1.64433083      1.24711308     -0.75038876
H       3.26596668     -0.91438277      0.41661614
H       3.79285743      0.46288208     -0.36269113
