14
b3lypvtz=-167285.86346603563
C      -1.80997126     -0.20644205      0.37402406
C      -0.42938550      0.08578923     -0.11030419
C       0.74393961      0.86985135      0.38919538
N      -0.09338336      1.35209261     -0.71642514
C       1.63670675     -0.28453181     -0.06850678
N       0.44416520     -0.96410237     -0.69323229
H      -2.43256459     -0.55284418     -0.45512898
H      -2.26013060      0.69664029      0.78244271
H      -1.80727498     -0.97967634      1.14495327
H       0.89800861      1.51480859      1.24330855
H       0.34065446      1.23263602     -1.62893056
H       2.04749133     -0.84675654      0.77125925
H       2.43752451     -0.05134793     -0.77413188
H       0.28421980     -1.86611687     -0.25852342
