9
b3lypvtz=-175811.23513385
C      -2.39997504     -0.58552680      0.05848086
C      -1.29218855     -0.13468774     -0.04666765
C       0.02669754      0.41595730     -0.14060048
N       0.35707867      1.63782068     -0.08410039
N       1.03269968     -0.57458969     -0.44388472
N       1.91803073     -0.67293552      0.40976555
H      -3.38075080     -0.98199710      0.15159802
H      -0.46408957      2.22897509      0.03699764
H       2.58976534     -1.37296822      0.05853617
