14
b3lypvtz=-146398.87448334
C       2.49210140     -0.30201811      0.00002866
C       1.44389868      0.52390066      0.00002384
C       0.04496626      0.13094979      0.00001897
C      -0.64032012     -1.02762671     -0.00000918
C      -1.99966121     -0.36832564     -0.00000786
C      -1.21270956      0.98609722      0.00001320
H       3.50546463      0.07540116      0.00001787
H       2.37176616     -1.37851282      0.00004860
H       1.62662612      1.59457227      0.00002085
H      -0.34156235     -2.06813736     -0.00006352
H      -2.61495804     -0.54140420     -0.88593596
H      -2.61501952     -0.54146382      0.88586547
H      -1.36322760      1.60424353     -0.88749921
H      -1.36325485      1.60418003      0.88756426
