14
b3lypvtz=-167334.1351657
C       0.85418329      1.44281198      0.16015908
C       0.77250815      0.00221017     -0.32994231
N       2.02046337     -0.69488848     -0.00850241
C      -0.36877049     -0.77529720      0.36150811
C      -1.69380597     -0.25466434      0.04479615
N      -2.73073632      0.16858063     -0.21890998
H       1.64993700      1.97870298     -0.36067194
H      -0.07930101      1.97423243     -0.02230381
H       1.07142035      1.46806979      1.22949984
H       0.55613514      0.01462000     -1.40687091
H       2.06943100     -1.59150519     -0.47912693
H       2.81692034     -0.15456527     -0.32467934
H      -0.21696005     -0.74864608      1.44260365
H      -0.33534379     -1.82531842      0.06077981
