15
b3lypvtz=-203810.58784135
C      -2.51307376     -0.54326981      0.16575516
O      -1.22347175     -0.34089589     -0.37237451
C      -0.62466877      0.85233847      0.07986501
N       0.73923725      0.88105698     -0.37629830
O       1.55577477      0.14265360      0.54539933
C       2.13701731     -0.96708962     -0.12749405
H      -2.49227518     -0.59222312      1.26159674
H      -2.87864616     -1.49106913     -0.22393140
H      -3.20793727      0.25248521     -0.13255554
H      -0.69342504      0.90593878      1.17747525
H      -1.12639362      1.73061422     -0.35392172
H       1.08731081      1.83233857     -0.30841194
H       2.78603668     -0.64059351     -0.94439693
H       1.36882174     -1.63521616     -0.52030644
H       2.73102799     -1.48621458      0.62482634
