13
b3lypvtz=-200648.2779817
C      -2.08108873      0.03474766     -0.26308489
C      -0.62766703     -0.37729065     -0.43579314
N       0.23857371      0.55307304      0.28301126
N       1.58850012      0.49246236      0.14898525
N       2.01945784     -0.57002717     -0.31375856
O       3.40685463     -0.56498497     -0.34336755
H      -2.36474318      0.04277859      0.78990487
H      -2.73448900     -0.66310825     -0.78602448
H      -2.26483659      1.02978905     -0.67546702
H      -0.34964483     -0.41693036     -1.49582238
H      -0.45809965     -1.37710945     -0.03484583
H      -0.04939513      1.51935604      0.27710466
H       3.67677784      0.29724411      0.02275780
