17
b3lypvtz=-158016.90003702
C       3.07972129     -0.12252769     -0.17194899
C       1.67633931      0.47288788     -0.27625830
C       0.61134527     -0.35938920      0.45437848
C      -0.76401808      0.23719844      0.39953671
C      -1.82433168     -0.36408087     -0.14254217
N      -3.14197135      0.09926516     -0.13391076
H       3.81392265      0.48999987     -0.69812836
H       3.39910254     -0.20097521      0.86992033
H       3.11619139     -1.12595252     -0.60271762
H       1.38995843      0.56997091     -1.32713834
H       1.67849620      1.48821547      0.13249306
H       0.92741561     -0.47814732      1.49870806
H       0.58859215     -1.36850564      0.03079622
H      -0.88771855      1.22359648      0.84198756
H      -1.71735400     -1.34876969     -0.58701453
H      -3.24121901      1.08097502      0.07946166
H      -3.68130717     -0.15277409     -0.94763403
