14
b3lypvtz=-167301.63175627
C      -1.96870971      0.48085212      0.36456328
C      -0.69841831      0.14432772     -0.31646734
N      -0.86484444      1.45491830      0.33324135
C       0.32289831     -0.78574562      0.30245033
C       1.72535780     -0.40528995     -0.07380040
N       2.49489029     -1.20832035     -0.68088866
H      -2.17736229      0.06236628      1.34165585
H      -2.84441903      0.66534726     -0.24584278
H      -0.72619618      0.12610569     -1.40150017
H      -1.05044863      2.17613780     -0.35487125
H       0.22207070     -0.72822792      1.39061964
H       0.14336301     -1.81653026     -0.00722070
H       2.01858029      0.61310757      0.20645319
H       3.40323820     -0.77904862     -0.85839231
