15
b3lypvtz=-180550.81410229
C       2.19807734     -0.65731118      0.04888340
C       1.28608542      0.52975356      0.09419771
C      -0.03424108      0.49723434     -0.10730101
N      -0.91747488      1.57131020      0.09184900
O      -0.65861211     -0.64456965     -0.53757851
C      -1.70469327     -1.15102993      0.29763547
H       2.95599753     -0.55115434     -0.73313031
H       2.73753904     -0.78548260      0.99237910
H       1.64199650     -1.57134545     -0.15145010
H       1.73004683      1.49627574      0.30469234
H      -0.44589920      2.42052015      0.36576737
H      -1.51431527      1.73851871     -0.70928924
H      -2.51131426     -0.42828536      0.42101300
H      -2.08102077     -2.04269457     -0.19855712
H      -1.31343681     -1.41887562      1.28296289
