14
b3lypvtz=-190627.61710728
C      -2.40252129     -0.08476865     -0.00000623
O      -1.11649919     -0.69530244     -0.00002765
C      -0.02153071      0.11493681     -0.00004636
N       0.01843152      1.37874162     -0.00008113
C       1.23669093     -0.73436510     -0.00002182
N       2.49925937     -0.02125129      0.00002205
H      -2.54962499      0.52907683      0.89201450
H      -2.54967455      0.52904695     -0.89203924
H      -3.12197014     -0.89889034      0.00002674
H      -0.89892795      1.81559970     -0.00010051
H       1.18919973     -1.39465988      0.86990684
H       1.18925016     -1.39463748     -0.86997093
H       2.53511126      0.59637385      0.80332793
H       2.53515685      0.59639142     -0.80326818
