11
b3lypvtz=-179010.09778431
C       2.66397349     -0.42266724     -0.00036578
C       1.52027913     -0.05478856     -0.00041447
C       0.12079200      0.34081036     -0.00029092
O      -0.21376821      1.50467689     -0.00048339
C      -0.88597484     -0.80978332      0.00018521
N      -2.28099548     -0.42879269      0.00009293
H       3.68173067     -0.72780787     -0.00040438
H      -0.66749453     -1.43803965      0.86980420
H      -0.66758755     -1.43876366     -0.86892369
H      -2.48240841      0.15099484      0.80680795
H      -2.48267027      0.14966491     -0.80750965
