11
b3lypvtz=-179044.21672315
O      -2.07603830     -0.03516891      0.00002335
C      -0.87155478     -0.01894790      0.00001103
C       0.01480068      1.19155838      0.00002402
N       1.25876379      0.93539617      0.00001813
C       1.47096152     -0.52728834     -0.00000380
C       0.09312364     -1.20076766      0.00003602
H      -0.37213694      2.20503500      0.00002084
H       2.07443699     -0.77493132     -0.87456970
H       2.07450647     -0.77495689      0.87450606
H      -0.09050111     -1.82057492      0.87807538
H      -0.09052298     -1.82066963     -0.87793032
