16
b3lypvtz=-147169.13962032
C       3.00190714      0.42735057      0.09606382
C       1.64981627     -0.10921283      0.01176208
C       0.53767133     -0.55973687     -0.06142309
C      -0.81858271     -1.09783219     -0.13694751
C      -1.89549039     -0.16734866      0.45445838
C      -2.03929064      1.15616731     -0.29270983
H       3.04612099      1.28177958      0.77465711
H       3.35665000      0.76123971     -0.88130463
H       3.70244742     -0.32497921      0.46467258
H      -0.84953420     -2.05886421      0.38477706
H      -1.06358284     -1.31192696     -1.18264485
H      -1.65789616      0.02284388      1.50361221
H      -2.84770821     -0.70404686      0.44065926
H      -1.10324768      1.71593410     -0.28320973
H      -2.81000034      1.78088392      0.16141755
H      -2.31768598      0.99088373     -1.33625642
