11
b3lypvtz=-199915.56528949
N       1.48962222     -0.87349094      0.43546031
C       1.44673839      0.29730975     -0.25003904
N       0.50093931      1.15846859     -0.31324068
C      -0.74357528      1.02894054      0.25920802
N      -1.61588735      0.08899619      0.25103699
O      -1.14241319     -1.08447362     -0.40542644
H       2.28266853     -1.47081852      0.27501025
H       0.60773477     -1.34035491      0.60214960
H       2.37663048      0.55154777     -0.75542320
H      -1.11731567      1.92978389      0.73712709
H      -1.92720422     -1.64067873     -0.39819990
