17
b3lypvtz=-158009.62562089
C       2.89531285      0.02389025      0.21558778
N       1.86509137      0.23330071     -0.47866965
C       0.58405943      0.35064885      0.19781326
C      -0.40099532     -0.69508576     -0.33128742
C      -1.79985320     -0.60718570      0.28932622
C      -2.57848282      0.65974657     -0.07039174
H       3.86196667     -0.07187254     -0.27475514
H       2.87954240     -0.06763526      1.30977299
H       0.68401252      0.25617330      1.29043771
H       0.20337622      1.35296071     -0.01394042
H      -0.46617057     -0.59253884     -1.41768559
H       0.01751246     -1.68684775     -0.13946258
H      -1.72132811     -0.69113457      1.37803546
H      -2.37319809     -1.47858470     -0.03741802
H      -2.09471798      1.56115455      0.30903792
H      -2.67355184      0.76703034     -1.15339553
H      -3.58548999      0.63165985      0.34911774
