12
b3lypvtz=-166564.61502051
C       2.69158523     -0.43902111     -0.02256505
N       1.48038232      0.28719312     -0.35100284
C       0.45384751      0.09478325      0.34905832
C      -0.82699739      0.84895998      0.06238760
C      -1.98075913     -0.04040047     -0.04821725
N      -2.87781595     -0.75612220     -0.12562590
H       3.00194690     -1.01745657     -0.89424616
H       3.48858860      0.27751295      0.18328214
H       2.58342716     -1.11307863      0.83621445
H       0.42665967     -0.60402463      1.19494218
H      -1.02391267      1.55921653      0.87190016
H      -0.70431426      1.41772678     -0.85917664
