15
b3lypvtz=-157234.36378284
C       2.83095071      0.28809739      0.00939345
C       1.51561379      0.47474577     -0.12363328
N       0.51091947     -0.39086555      0.28197375
C      -0.74932220     -0.38935932     -0.40225557
C      -1.74199734      0.68847576     -0.05967979
C      -1.97666554     -0.72836720      0.39282447
H       3.24490900     -0.62251637      0.42462074
H       3.52292289      1.06420864     -0.27844222
H       1.13545051      1.39749226     -0.54792385
H       0.83375952     -1.30839051      0.55400977
H      -0.74009469     -0.71781489     -1.43963982
H      -1.44458122      1.40585793      0.69160016
H      -2.35560055      1.08562586     -0.85582886
H      -1.83347247     -0.94191467      1.44264149
H      -2.75279188     -1.30527511     -0.08966042
