15
b3lypvtz=-180545.36833035
C      -2.89131479      0.06447107     -0.22264020
O      -1.56310099     -0.38451074     -0.36227786
C      -0.66121488      0.28570846      0.51799157
C       0.69939978     -0.30687335      0.40875999
C       1.74283898      0.35907197     -0.09302824
N       3.02105446     -0.13677881     -0.30424139
H      -2.98803715      1.13245896     -0.46114102
H      -3.50475800     -0.50655355     -0.91798502
H      -3.26974883     -0.09350441      0.79648745
H      -0.63098965      1.35795218      0.27639805
H      -1.04555154      0.19613971      1.54553782
H       0.81562339     -1.33472123      0.73830661
H       1.61263666      1.38113064     -0.43378126
H       3.24642884     -0.99170647      0.18039352
H       3.76646072      0.53830655     -0.25720202
