11
b3lypvtz=-202374.08716101
C      -1.17286194     -0.63556905     -0.53826601
C      -0.52382454     -0.28904334      0.78068460
O      -1.01606756     -0.56228760      1.85049202
N       0.70347527      0.37912672      0.74444753
C       1.44464237      0.78794858     -0.34566731
O       2.49996719      1.36214828     -0.24802724
H      -2.10809229     -1.14380673     -0.32439361
H      -0.53440562     -1.29018583     -1.13331154
H      -1.37519667      0.26039554     -1.12696211
H       1.09820646      0.58942282      1.65359718
H       0.98405733      0.54175060     -1.31259349
