12
b3lypvtz=-166552.7267845
N       2.86678895     -0.39888796      0.01345726
C       1.82628050      0.32931173     -0.06644355
C       0.43844096     -0.10191095      0.07541395
C      -0.60082785      0.73600586     -0.02906982
C      -2.01862664      0.35683719      0.10035428
N      -2.55145272     -0.78147253     -0.08948779
H       2.61801184     -1.37321850      0.20146229
H       1.97429791      1.39300537     -0.26453400
H       0.27549638     -1.15559400      0.28700031
H      -0.40632244      1.79191696     -0.19209366
H      -2.68848998      1.16982611      0.38593585
H      -1.85750590     -1.47112628     -0.38771513
