13
b3lypvtz=-203117.04626089
C       2.17929318     -0.64036138     -0.02822937
N       1.29574693      0.51099012      0.03143490
C      -0.05769735      0.48957233      0.00542664
O      -0.73196486      1.51044974     -0.02652921
C      -0.75458861     -0.86935371      0.02952437
O      -2.14261766     -0.69575473     -0.00127209
H       1.84265771     -1.42578172      0.64752683
H       3.17324108     -0.33534623      0.29227709
H       2.25751959     -1.05842433     -1.03558967
H       1.69984953      1.43215074     -0.03096832
H      -0.45189935     -1.41357596      0.93349973
H      -0.41827697     -1.46345307     -0.82973442
H      -2.27453922      0.26784419     -0.02281350
