18
b3lypvtz=-147944.90332789
C       3.08237772     -0.17035151     -0.43596683
C       2.03978609     -0.20700863      0.38444085
C       0.77518647      0.58189172      0.22183018
C      -0.47438790     -0.30137535      0.08653373
C      -1.77195048      0.49977260     -0.03020109
C      -3.01305616     -0.38148970     -0.16674826
H       3.96457276     -0.77251205     -0.26172011
H       3.09254581      0.46792261     -1.31230820
H       2.07758328     -0.86486506      1.24969202
H       0.64512179      1.23498585      1.09300096
H       0.86035975      1.23716381     -0.64940741
H      -0.53889799     -0.97056256      0.95112070
H      -0.36222354     -0.94705721     -0.78978429
H      -1.87679767      1.14504639      0.84773821
H      -1.70445779      1.17059531     -0.89235033
H      -3.92103627      0.21815849     -0.24943945
H      -3.12745255     -1.03877174      0.69819762
H      -2.95169033     -1.01441797     -1.05483833
