13
b3lypvtz=-177408.59186884
C       2.07163276     -0.89827277     -0.11580583
C       0.97013893      0.11731038      0.05401545
N       1.12413449      1.38349385      0.11550200
N      -0.29150899     -0.47862788      0.19086509
C      -1.30682204      0.21167586     -0.17190123
N      -2.57314305     -0.21235732      0.02137238
H       2.06789505     -1.58769773      0.73009529
H       3.04948852     -0.42499147     -0.19005147
H       1.89374361     -1.49848417     -1.01057977
H       2.10397058      1.63138149      0.00010930
H      -1.21063922      1.18981118     -0.64636004
H      -2.72970923     -1.11792485      0.43056084
H      -3.34714143      0.27433042     -0.38918302
