13
b3lypvtz=-177311.29956833017
C       1.35568749      1.33821346     -0.27741799
C       0.44813859      0.43558252      0.16132861
C      -0.87584930      0.65030483      0.66468250
N      -1.79660656     -0.47867480      0.31631688
H      -2.52201237     -0.60855233      1.01489201
H      -1.15805983     -1.29325878      0.33039188
H      -2.25225837     -0.45265570     -0.61091930
N       0.76148518     -0.97845992      0.25018353
N       1.94907570     -1.31446625      0.15756994
H       1.07438415      2.37100985     -0.42420712
H       2.38795780      1.05922428     -0.41603821
H      -1.34863329      1.61275983      0.52384771
H       1.97669082     -2.34102698      0.23187514
