17
b3lypvtz=-158012.93105842
C      -2.30304764     -0.65722959      0.05823458
C      -1.35847374      0.51041916      0.09118029
C      -0.02508323      0.44114327     -0.05797174
C       0.83647220      1.67248722     -0.00246867
N       0.64113998     -0.75303111     -0.34917791
C       1.96991521     -1.02644824      0.18141115
H      -2.59700633     -0.93662664     -0.96016782
H      -1.87724329     -1.55209535      0.52364182
H      -3.22153526     -0.42862906      0.60046216
H      -1.79568819      1.49345282      0.20404493
H       0.21590218      2.55893027      0.10792436
H       1.53350294      1.64616807      0.83888533
H       1.43223164      1.77789866     -0.91302789
H       0.03689018     -1.55853631     -0.30780024
H       2.29282265     -2.00281739     -0.17835442
H       2.68787005     -0.29280181     -0.18294611
H       2.01765868     -1.03362398      1.27860017
