11
b3lypvtz=-176621.93280839
C      -2.38677421     -0.70674447      0.06435709
N      -1.83192747      0.32870696     -0.40255963
C      -0.52048415      0.63956525     -0.09001716
N       0.44486816     -0.17624100     -0.26261450
C       1.73529412      0.30784618      0.00810095
N       2.78665001     -0.39258251     -0.04547321
H      -3.39390809     -0.95710361     -0.25704789
H      -1.89752238     -1.36570541      0.78479508
H      -0.38118228      1.67330338      0.24125684
H       1.82246192      1.36333986      0.28829732
H       2.54667437     -1.34560462     -0.32828590
