9
b3lypvtz=-196741.55977649
C      -1.28662040      0.06669628      0.09830961
N       0.15892201     -0.00707102     -0.02870693
N       0.83585099     -1.13472419     -0.15152376
N       2.07995862     -0.78014798     -0.19824480
N       2.15666258      0.55885986     -0.10228465
N       0.96059327      1.04224936      0.00463003
H      -1.71833936     -0.76557417     -0.44909313
H      -1.61629081      1.01243638     -0.32069725
H      -1.57073691      0.00727549      1.14761090
