15
b3lypvtz=-178157.16224001
N      -3.00202564      0.19497407     -0.19805041
C      -2.12153800     -0.72741990     -0.19101150
N      -0.75565110     -0.63311720     -0.22871191
C      -0.04636190      0.61738930     -0.06858405
C       1.44955246      0.39522379     -0.26849628
N       1.93612290     -0.64926286      0.63908923
H      -2.58199551      1.12378911     -0.19808419
H      -2.46426925     -1.76259972     -0.18256197
H      -0.22531164     -1.44168316      0.06044237
H      -0.22970888      1.06000010      0.92197521
H      -0.39908610      1.34132089     -0.80747179
H       1.61889657      0.05062674     -1.29016817
H       1.96372727      1.35792108     -0.15768720
H       1.99229558     -0.30429106      1.59061508
H       2.86545324     -0.95297118      0.37860559
