12
b3lypvtz=-168942.92617751
O      -2.05155649     -0.43145404     -0.43334713
C      -1.40915004      0.43218685      0.10659557
C      -0.01082397      0.27645078      0.63854309
C       1.07282483      0.98382184     -0.17909195
C       1.72049679     -0.14729093     -0.45876040
C       0.75785658     -1.04090974      0.29855736
H      -1.83305567      1.45230051      0.23215697
H      -0.01271934      0.55118258      1.69947696
H       1.23154999      2.02586177     -0.42021071
H       2.62506013     -0.36158683     -1.01163036
H       1.17392758     -1.55842540      1.16462604
H       0.17988860     -1.74410940     -0.29921645
