12
b3lypvtz=-218183.75736333
N       1.35728301     -0.92621531      0.54569043
C       1.02049435      0.11043659     -0.08738714
O       1.93465471      1.03883515     -0.50496915
C      -0.41334591      0.40838875     -0.43370327
C      -1.37759524     -0.65601843      0.05609512
F      -2.67223165     -0.28314601     -0.31507358
H       2.36577106     -0.95968379      0.68868910
H       1.49671789      1.76022311     -0.97039164
H      -0.50812079      0.50918977     -1.51958885
H      -0.69431726      1.37521212     -0.00394507
H      -1.34800545     -0.75189902      1.14017140
H      -1.16100472     -1.62532294     -0.38978737
