13
b3lypvtz=-156481.2611994
C      -0.68675347      1.13697093     -0.02221348
N      -1.48944962      0.18819032      0.24892773
C      -0.80668615     -1.09491354     -0.01404249
C       0.63149701     -0.76884602     -0.40347869
C       1.45351613     -0.03095931      0.60764168
C       0.68664308      0.74709947     -0.44398516
H      -1.00275450      2.17219990      0.07417162
H      -1.34173496     -1.61201006     -0.81464118
H      -0.87753669     -1.72529208      0.87544563
H       1.13538614     -1.36663253     -1.14914070
H       2.52873186     -0.06892379      0.49810220
H       1.10319401      0.02075557      1.63101929
H       1.22610317      1.31753814     -1.18691045
