12
b3lypvtz=-192244.30329896
C       1.31130062     -0.98071113     -0.33498555
C       0.77391593      0.15577234      0.09782238
C      -0.60743218      0.28653677      0.63395570
C      -1.78985376      0.15426053     -0.23077587
O      -1.40757567     -0.88720617      0.67133459
O       1.39745791      1.37341777      0.12757977
H       0.73634418     -1.89191548     -0.29589526
H       2.32017084     -1.02197953     -0.72459786
H      -0.68515343      0.92726517      1.50848021
H      -1.64406991     -0.07080145     -1.28157927
H      -2.70384839      0.67949433      0.02708500
H       2.29874385      1.27586682     -0.19842383
