16
b3lypvtz=-168062.60266846
C       2.70415127     -0.06415617     -0.28843711
C       1.38819893      0.43119513      0.29463068
N       0.29503919     -0.49096027     -0.02417329
C      -0.97833805     -0.11098942      0.51598643
C      -1.81744745      0.80524149     -0.28684554
N      -2.17982484     -0.61869952     -0.14609508
H       2.62494213     -0.18476655     -1.36926581
H       3.51090895      0.63813670     -0.07501006
H       2.98598848     -1.02974418      0.13881851
H       1.13450128      1.40372076     -0.13298334
H       1.49967964      0.58619364      1.37914609
H       0.53621040     -1.42217511      0.29979845
H      -1.06860451     -0.07250019      1.60222677
H      -1.40627155      1.13481186     -1.23289590
H      -2.48948941      1.50047339      0.19956063
H      -1.88831246     -1.11087456     -0.98583642
