11
b3lypvtz=-199902.8833042
C      -0.36390882     -0.58614282      0.63574086
C      -1.65090683     -0.36882993      0.36939128
O      -2.02872638      0.64200408     -0.48548229
N       0.66625259      0.16427302      0.09066882
N       1.93298451     -0.10242009      0.39522897
N       2.75209045      0.65779489     -0.17238638
H      -0.05323052     -1.37339007      1.30272953
H      -2.42670170     -0.97481808      0.81317637
H      -2.98471551      0.66026125     -0.56572521
H       0.48361898      0.93071096     -0.54998943
H       3.67324321      0.35055678      0.14188567
