16
b3lypvtz=-170481.97045885
C      -2.56082161     -0.49889079     -0.31836225
C      -1.68304278      0.68754319     -0.05818593
C      -0.42616904      0.69786896      0.38520520
C       0.44422056     -0.47758290      0.72427070
C       1.61375123     -0.66724230     -0.25144900
O       2.50519664      0.44252120     -0.28654516
H      -2.87575437     -0.52400895     -1.36544035
H      -3.47549507     -0.43970261      0.27803560
H      -2.07543029     -1.44684179     -0.09384910
H      -2.14815873      1.64956878     -0.25350333
H       0.03963570      1.66898759      0.52590093
H      -0.13165847     -1.40471425      0.74640427
H       0.86446336     -0.33669543      1.72486566
H       1.22765147     -0.88688081     -1.25359853
H       2.21736165     -1.51881634      0.06526942
H       2.06609776      1.16971743     -0.73717012
