14
b3lypvtz=-167324.18423969
C       2.16806838     -0.00000004      0.00000045
C       0.82715135      0.00000014      0.00000018
N      -0.00881095     -1.10878319     -0.18622748
C      -1.38004436     -0.74652060      0.16614525
C      -1.38004415      0.74652129     -0.16614525
N      -0.00881070      1.10878367      0.18622754
H       2.72074540      0.91478823      0.14653413
H       2.72074521     -0.91478847     -0.14653299
H       0.34200836     -1.98068578      0.17577420
H      -1.59794799     -0.90024356      1.23043098
H      -2.10575351     -1.30645858     -0.42348399
H      -2.10575320      1.30645939      0.42348399
H      -1.59794771      0.90024431     -1.23043097
H       0.34200886      1.98068620     -0.17577403
