10
b3lypvtz=-191504.36443984
C       2.90707966      0.00193771     -0.00001390
C       1.45541783     -0.01998766      0.00023646
C       0.25272225     -0.05236004      0.00047873
C      -1.19339672     -0.12908212      0.00082316
O      -1.81874416     -1.15116156      0.00294106
O      -1.82081072      1.07567196     -0.00149426
H       3.28517573      0.52658321     -0.87940132
H       3.28542721      0.51586292      0.88558399
H       3.31208244     -1.01108910     -0.00614275
H      -1.16326651      1.78278769     -0.00296316
