9
b3lypvtz=-175848.83324249
C      -2.63402207     -0.35732864      0.00023969
N      -1.63830882      0.43311928      0.00019466
N      -0.42141442     -0.26956558      0.00005196
C       0.57351860      0.52900354     -0.00004163
C       1.90477951      0.00723889     -0.00000280
N       2.99908803     -0.35312080      0.00002025
H      -3.62527088      0.08018491     -0.00006972
H      -2.51795038     -1.43969252     -0.00014261
H       0.45115742      1.61085793     -0.00012880
