13
b3lypvtz=-177366.13959163
C       2.13239269     -0.95728856     -0.15021292
N       2.02968542      0.30867270     -0.03110772
N       0.79461503      0.88311946      0.02686353
C      -0.35854824      0.15039258      0.40932586
C      -1.48924455      0.21584733     -0.30091759
N      -2.67351276     -0.45049108     -0.02558028
H       3.13250884     -1.36334528     -0.22315891
H       1.28388981     -1.63650183     -0.20713135
H       0.87507593      1.82057412      0.38534468
H      -0.28085197     -0.47336855      1.30004317
H      -1.50267119      0.80608712     -1.20916027
H      -2.77636742     -0.80273216      0.91326417
H      -3.51200160     -0.00404183     -0.35821238
