9
b3lypvtz=-222408.23148159886
C       0.34349726     -0.32957038     -0.09562176
N      -0.50998652      0.60525720     -0.18421706
N      -1.79462747      0.33901525     -0.26035270
N       1.75588196      0.02052724     -0.01390126
O       2.51126632     -0.94606969      0.06870651
O       2.09673594      1.18816438     -0.03068902
H       0.17340337     -1.39994319     -0.07021631
H      -2.41308467      1.12467328     -0.32829280
H      -2.16308619     -0.60205412     -0.25259449
