14
b3lypvtz=-167331.08113984
C       1.89961837     -0.02789820     -0.47033003
C       0.73213977      0.00235713      0.51471460
C      -0.24414935      1.19150315      0.27644934
N      -1.35124803      0.51872502     -0.41742602
C      -1.20211855     -0.83212961     -0.15194563
N      -0.09881201     -1.21517640      0.35336895
H       1.53556518     -0.02196062     -1.49950964
H       2.55009307      0.83802447     -0.32945316
H       2.49002083     -0.93225609     -0.32533006
H       1.12864826      0.02196483      1.53106049
H      -0.57787658      1.63527662      1.21952934
H       0.19334248      1.97743775     -0.33990580
H      -2.27423351      0.92043721     -0.37217650
H      -2.00189595     -1.51328125     -0.42181890
