11
b3lypvtz=-179028.93681726
C       2.19585270     -0.64851065      0.00186068
C       0.86779433     -0.71006251     -0.00479885
C      -0.03591166      0.45842021      0.00559581
N       0.25058948      1.70119806      0.02343585
C      -1.51656787      0.16810831     -0.00616327
O      -1.98544928     -0.94136913     -0.02297850
H       2.73709220      0.29084921      0.01582268
H       2.79815090     -1.54634236     -0.00655972
H       0.36401472     -1.66829101     -0.01901878
H       1.25934187      1.86280799      0.03111380
H      -2.13756039      1.08152587      0.00226631
