15
b3lypvtz=-157240.35762784
C      -1.18161139     -1.25719418      0.02636205
C      -0.05176451     -0.22429179     -0.08481355
C      -0.48460050      1.11293330      0.45506893
C      -0.63871829      2.20776454     -0.27649199
N       1.08676091     -0.69770333      0.70383434
C       2.17342219     -0.92316514      0.10785473
H      -0.85594677     -2.22166427     -0.36555631
H      -1.47098674     -1.39378604      1.06876937
H      -2.05289460     -0.92541864     -0.53862200
H       0.22316947     -0.10742987     -1.14330957
H      -0.68068616      1.13537388      1.52263343
H      -0.97363433      3.13885110      0.16135017
H      -0.43770426      2.21421413     -1.34163362
H       3.03041131     -1.28011524      0.67522995
H       2.31478368     -0.77836845     -0.97067593
