13
b3lypvtz=-177408.35031534
N       2.12216767     -0.12990664     -0.00327064
C       0.85280516     -0.02333597     -0.00892478
N      -0.00274411     -1.10269491     -0.18928611
C      -1.36615523     -0.73313586      0.16303214
C      -1.34748552      0.76971328     -0.14609753
N       0.04015061      1.10275701      0.17060219
H       2.56796852      0.77210486      0.13437014
H       0.36468101     -1.99895654      0.08456742
H      -1.58797535     -0.90376599      1.22347271
H      -2.10025449     -1.27012797     -0.43676632
H      -2.04805896      1.33022410      0.47196808
H      -1.58766843      0.94697348     -1.20057305
H       0.40949312      1.97452616     -0.17244626
