15
b3lypvtz=-180540.83139292
C      -2.34781400     -0.24955966     -0.36009863
C      -0.89286688      0.13810996     -0.39508152
N      -0.30486503      0.91779143      0.71380376
C       0.09083442     -0.48953754      0.51237078
C       1.54678390     -0.67856155      0.13742522
O       2.04247608      0.40825918     -0.61917176
H      -2.98599804      0.59591971     -0.62658591
H      -2.64217624     -0.59619499      0.63339150
H      -2.55228404     -1.05448484     -1.06934656
H      -0.52607930      0.46528163     -1.36175842
H      -0.96210632      1.00926611      1.48118341
H      -0.29506087     -1.22232635      1.21536215
H       1.66725814     -1.58043988     -0.46770422
H       2.13357954     -0.81645919      1.05675253
H       1.66049165      1.20199798     -0.21612932
