13
b3lypvtz=-203104.0381652
C       2.06085187     -0.53887726      0.18684131
C       0.69277332      0.10255965      0.27880209
O       0.63927589      1.37809502     -0.30461536
O      -0.22506958     -0.80686284     -0.33877518
C      -1.56552650     -0.60636666     -0.15888739
N      -2.18811244      0.35711595      0.35587304
H       2.32918115     -0.70152803     -0.85887475
H       2.80245931      0.11259514      0.64652904
H       2.06780016     -1.50275983      0.69384216
H       0.38886887      0.25320849      1.31687683
H       0.95590367      1.31726466     -1.21366763
H      -2.09871886     -1.46723947     -0.55349369
H      -1.58117086      1.12404218      0.63612454
