17
b3lypvtz=-158004.62988619
C      -3.00589398      0.04093237      0.16966993
C      -1.84318612     -0.33173718     -0.34941701
C      -0.52395353     -0.24988036      0.35745917
N       0.43603199      0.52573609     -0.42602416
C       1.76918162      0.63363756      0.16737084
C       2.60639622     -0.62517366     -0.04056357
H      -3.93063788     -0.04811845     -0.38523346
H      -3.07614863      0.44292191      1.17397010
H      -1.80089563     -0.72056545     -1.36221296
H      -0.12326723     -1.26177119      0.47269617
H      -0.66930536      0.14804454      1.37538050
H       0.05637901      1.45119424     -0.58106181
H       1.72512470      0.86788139      1.24405392
H       2.27047931      1.47519993     -0.31493821
H       2.68776771     -0.85558576     -1.10330391
H       2.16983492     -1.49053856      0.46018910
H       3.61056588     -0.48642843      0.36435737
