11
b3lypvtz=-202333.82600884
N       2.30447286     -0.87279168      0.62197459
C       1.09744711     -0.98256281      0.23845325
C       0.15028166      0.10246380      0.01247497
O       0.62850242      1.36100212      0.24193837
C      -1.10434681     -0.13309409     -0.39373477
O      -1.95685969      0.92253424     -0.59200130
H       2.54043419      0.11221565      0.75872502
H       0.70175956     -1.98208147      0.05108780
H      -0.07491151      1.99656201      0.06342446
H      -1.46955860     -1.13375776     -0.57162322
H      -2.81732118      0.60951000     -0.88081917
