11
b3lypvtz=-176647.28744791
N       2.06976095     -0.12901593      0.00095826
C       0.79376781     -0.01556212     -0.00047548
N      -0.08690236     -1.08578815     -0.00129215
H       0.24100064     -2.03318306      0.00282784
C      -1.41014379     -0.65593967      0.00078521
C      -1.39713204      0.68748541      0.00074024
N      -0.05762257      1.08640703     -0.00166660
H       0.27127612      2.03282623      0.00365040
H       2.52961593      0.77471926      0.00100507
H      -2.23741832     -1.34056195      0.00074166
H      -2.20783136      1.39160296      0.00059555
