11
b3lypvtz=-179033.46647558
N       2.19168883      0.29906992      2.04413558
C       1.73376878     -0.24557586      1.13609165
C       1.18646768     -0.93291301      0.01400502
C       0.06684395     -0.55723429     -0.60860066
C      -0.76858591      0.63312391     -0.27167611
O      -2.12970491      0.27907082     -0.49056064
H       1.74160451     -1.79760931     -0.32556501
H      -0.28243021     -1.14148890     -1.45176828
H      -0.47050745      1.46302371     -0.92824319
H      -0.59031518      0.94924807      0.76068885
H      -2.67873009      1.05138495     -0.32860721
