13
b3lypvtz=-179801.88676608
C      -2.04066734     -0.64587160      0.11989958
C      -1.12279397      0.48176992     -0.34457509
C       0.24321631      0.48585678      0.34453995
O       0.94809726      1.63438213     -0.10498994
C       1.00776322     -0.74508066      0.05615977
N       1.62421087     -1.69249190     -0.15964298
H      -2.23304885     -0.58844813      1.19321834
H      -1.61288325     -1.62639950     -0.09289686
H      -3.00155037     -0.58570094     -0.39074849
H      -1.57100602      1.45449388     -0.13555014
H      -0.95754860      0.42993208     -1.42177404
H       0.09528000      0.52084218      1.43121737
H       1.81829375      1.65748877      0.30705650
