15
b3lypvtz=-157241.14313165
C       2.83047484     -0.19184295     -0.33681573
C       1.77472334      0.10666062      0.40861705
C       0.38486934     -0.39200299      0.15162428
N      -0.53995047      0.71833419     -0.00606823
C      -1.89483680      0.49541509     -0.15849088
C      -2.55729816     -0.65447351      0.01060555
H       3.81702046      0.18461636     -0.10064330
H       2.74662823     -0.83213846     -1.20731602
H       1.88713542      0.75577209      1.27190208
H       0.37517400     -1.06438304     -0.71717558
H       0.04747410     -0.98163782      1.01054532
H      -0.17338059      1.49277284     -0.53579305
H      -2.44323788      1.39624414     -0.41140855
H      -2.06866036     -1.58675508      0.25362869
H      -3.63247448     -0.66816949     -0.08012663
