15
b3lypvtz=-180534.3599693
C      -1.69594368      1.26794379      0.08864576
C      -0.93562567      0.00000123     -0.32861465
C      -1.69595292     -1.26793717      0.08864135
C       0.44433921     -0.00000451      0.25944240
N       1.46679120     -0.00000252     -0.48917047
O       2.65862985     -0.00000767      0.26289855
H      -1.17583783      2.16736752     -0.24232269
H      -1.80498056      1.32127647      1.17463023
H      -2.69688090      1.27385263     -0.34617491
H      -0.82046605      0.00000278     -1.41439679
H      -2.69689019     -1.27383717     -0.34617931
H      -1.80499019     -1.32127276      1.17462565
H      -1.17585379     -2.16736367     -0.24233016
H       0.55474537     -0.00000942      1.34590136
H       3.33703217     -0.00000552     -0.41959033
