13
b3lypvtz=-203079.69645775
C       1.89750151      0.29541294      0.31788270
C       0.68378987     -0.19480093     -0.33165077
O       1.36680030     -0.99969259      0.63258987
C      -0.69396613      0.26894720      0.08533995
N      -1.70913681     -0.76952739      0.09017278
O      -1.06275508      1.28361752     -0.82872145
H       1.81611335      1.03290604      1.10998624
H       2.83712299      0.29117307     -0.22406937
H       0.74672402     -0.55334153     -1.35720487
H      -0.63161023      0.65460038      1.11105016
H      -1.57804284     -1.39448176      0.87677651
H      -1.65946449     -1.32428057     -0.75838521
H      -2.01307644      1.40946764     -0.72376653
