11
b3lypvtz=-155666.95129167
C      -2.22563314     -0.96743156     -0.14501259
C      -1.21480727     -0.36719734      0.08460669
C       0.00004942      0.39359450      0.40801341
N      -0.00006809      1.67364405     -0.32768461
C       1.21486608     -0.36714312      0.08432116
C       2.22568645     -0.96734845     -0.14539889
H      -3.11371156     -1.50650321     -0.36285315
H       0.00018216      0.53357415      1.50048590
H      -0.81906244      2.20955668     -0.06376893
H       0.81901344      2.20955305     -0.06403241
H       3.11372895     -1.50637775     -0.36349058
