13
b3lypvtz=-177403.42646185
C      -2.27302575     -0.73802282     -0.24171892
C      -0.98501099     -0.65764346      0.09333058
N      -0.22206103      0.50144332      0.06716426
C       1.13654092      0.62067512      0.34526706
N       1.74661385      1.71081349      0.61183008
N       1.83046081     -0.58253296      0.34573570
H      -2.79447980     -1.67867062     -0.16139384
H      -2.83584993      0.11889825     -0.58953696
H      -0.44661615     -1.52652375      0.44548460
H      -0.70679767      1.37128964     -0.08091961
H       1.10422779      2.49089799      0.71721575
H       1.62697983     -1.20602957     -0.42125143
H       2.81901815     -0.42459462      0.46893751
