15
b3lypvtz=-157227.38540059
C       2.36709552      0.03380545     -0.02346724
C       1.16810692      0.02737740      0.01142443
C      -0.30290043     -0.00156274      0.02536112
C      -0.79007788     -1.12586675     -0.91649496
C      -0.85037520      1.35663563     -0.44799804
N      -0.73831416     -0.19534826      1.42412988
H       3.42804338      0.04849879     -0.04595616
H      -0.44864352     -0.96583099     -1.94015796
H      -0.41702367     -2.09382144     -0.58060158
H      -1.88186031     -1.15588229     -0.91762097
H      -1.94254872      1.33980670     -0.43033312
H      -0.50478126      2.14964083      0.21216062
H      -0.52737628      1.57312799     -1.46568719
H      -0.35265734     -1.05781753      1.79208741
H      -1.74878306     -0.28550681      1.45039474
