15
b3lypvtz=-185553.4496481
C       0.24336960      1.64450158     -0.00813694
C       0.28564935      0.13396343     -0.10010022
C      -0.99374141     -0.50773044     -0.55186919
F      -2.02067958     -0.27414791      0.37297787
C       1.12983669     -0.63294094      0.88393413
C       1.55921813     -0.53529010     -0.55649167
H      -0.52913294      1.96755636      0.69118485
H       0.02471478      2.09129047     -0.98153345
H       1.19825999      2.04377008      0.33550759
H      -0.88437628     -1.58995520     -0.64787979
H      -1.32978775     -0.09553155     -1.50728840
H       1.68252664     -0.06554017      1.61999249
H       0.76130526     -1.58446405      1.24236264
H       2.39687929      0.10393538     -0.79989161
H       1.48806424     -1.42375095     -1.17007930
