15
b3lypvtz=-178129.45778458
C      -2.13031649     -0.87316063     -0.34054045
C      -1.55187549      0.17537700      0.60843944
C      -0.52422507      1.10754268     -0.04463982
N       0.68308624      0.45565223     -0.51608126
N       1.64379353      0.18963057      0.36438633
N       2.49752942     -0.63073842     -0.04293144
H      -2.62017528     -0.40447565     -1.19765474
H      -2.87153076     -1.49342394      0.16458124
H      -1.35557768     -1.54082437     -0.72217565
H      -1.08090611     -0.31288259      1.46516459
H      -2.35959191      0.79580194      1.00743055
H      -0.97279340      1.62079018     -0.89876756
H      -0.21018829      1.87129985      0.66655408
H       0.66618101     -0.13900495     -1.33996609
H       3.18961627     -0.70339290      0.70420278
