13
b3lypvtz=-179807.79648088
C       1.04757464      1.51071608     -0.05919315
C       0.74037238      0.20438130      0.00826477
N       1.64796228     -0.82714523      0.11811942
C      -0.68551414     -0.27499728     -0.01140020
C      -1.81886174      0.72251072      0.05151314
O      -0.90603988     -1.46909370     -0.08308318
H       2.07411613      1.85237156     -0.06858163
H       0.27964496      2.26409693     -0.10411055
H       1.26553994     -1.73244470     -0.10942084
H       2.58423719     -0.65895951     -0.20651425
H      -1.80306419      1.38452644     -0.81543696
H      -2.75759797      0.17554013      0.06742376
H      -1.74218061      1.34677826      0.94228566
