11
b3lypvtz=-202345.27427286
C       1.47042602     -0.60792866      0.60058989
C       0.64494142      0.15540552     -0.11448346
O       1.13015473      1.11115679     -0.95157896
C      -0.84351180      0.02761306     -0.05710595
N      -1.57386247     -0.75305902      0.61447737
O      -1.42925783      0.93307654     -0.89101122
H       2.53901679     -0.47649828      0.52401098
H       1.09662249     -1.36804297      1.26669574
H       0.38481877      1.55371763     -1.37640772
H      -1.03437088     -1.38198397      1.19883419
H      -2.38507725      0.80644335     -0.81402085
