12
b3lypvtz=-192284.17990078
C       1.89509174     -0.55678990      0.00004091
C       0.69396224      0.34631005     -0.00021855
O       0.75363315      1.55374279     -0.00015931
C      -0.69396236     -0.34630984     -0.00021920
C      -1.89509191      0.55679006      0.00004023
O      -0.75363328     -1.55374258     -0.00015509
H       2.80167033      0.04221498      0.00014112
H       1.87060955     -1.21270887      0.87210343
H       1.87092350     -1.21292596     -0.87186429
H      -2.80167046     -0.04221489      0.00014329
H      -1.87060773      1.21270987      0.87210211
H      -1.87092579      1.21292529     -0.87186562
