13
b3lypvtz=-177378.11779368
C       0.72889696      1.60940199     -0.01131909
C      -0.02089633      0.30662111      0.00643218
C      -1.50607291      0.32249573      0.01569979
N      -2.29363865     -0.67154987     -0.00409037
N       0.54707761     -0.84463826      0.00226813
N       1.89832885     -0.91837469     -0.06609260
H       1.35402300      1.72939993      0.88065533
H       1.39074178      1.66750431     -0.88035547
H       0.04632184      2.45622796     -0.04642917
H      -1.95139651      1.31961806      0.04231466
H      -1.74734195     -1.53739642     -0.02963720
H       2.42917225     -0.14409832      0.31771620
H       2.23106405     -1.81992354      0.23532260
