15
b3lypvtz=-208871.36292431
C       1.64842880     -0.75841895     -0.38013062
C       0.39369497      0.00685816      0.02471624
C       0.46994736      1.47716205     -0.39772866
O       0.31117177     -0.09243317      1.45138196
C      -0.83150873     -0.67295134     -0.58036603
F      -1.99398444     -0.04821353     -0.10601680
H       2.52289203     -0.29228422      0.07319801
H       1.77996807     -0.75642692     -1.46289615
H       1.59630592     -1.79018301     -0.03198005
H      -0.44536116      2.00403045     -0.12603715
H       0.60743628      1.57433425     -1.47633749
H       1.30850488      1.95822594      0.10457131
H      -0.53404699      0.28423169      1.72159554
H      -0.87888429     -1.71769639     -0.27133257
H      -0.84108048     -0.60143003     -1.66945253
