16
b3lypvtz=-147169.38446197
C      -3.00264840      0.00007285      0.12485310
C      -1.55796095     -0.00001450     -0.06391849
C      -0.36645798     -0.00006473     -0.22492415
C       1.08809661     -0.00007068     -0.40052255
C       1.71996662      1.27088085      0.19318806
C       1.71998723     -1.27103089      0.19314504
H      -3.52601841     -0.00456192     -0.83360985
H      -3.32760409     -0.87934710      0.68483998
H      -3.32852711      0.88421203      0.67682270
H       1.29038327     -0.00005249     -1.47730686
H       2.79643928      1.27987981      0.01261823
H       1.28864101      2.16750833     -0.25154012
H       1.55292989      1.31472537      1.27049160
H       1.28868914     -2.16765219     -0.25162199
H       2.79646159     -1.27999456      0.01258202
H       1.55294830     -1.31492319      1.27044627
