14
b3lypvtz=-193028.07799329
C      -1.66944529     -0.40949186      0.14118673
C      -0.43883540      0.18174728     -0.54632217
O      -0.14093722      1.49028220     -0.01348218
C       0.77514545     -0.68897780     -0.39778941
C       1.90155478     -0.41979005      0.26696640
O       2.22149179      0.70272032      0.95009488
H      -2.54740642      0.22350009     -0.01818078
H      -1.89656030     -1.39690379     -0.26325402
H      -1.49231464     -0.50822934      1.21244921
H      -0.66143319      0.29402130     -1.61625685
H      -0.95003384      2.00791436      0.01989007
H       0.71531594     -1.65261394     -0.88635353
H       2.70348731     -1.14692568      0.30236150
H       1.47987103      1.32284691      0.84869014
