14
b3lypvtz=-167308.2155041
C       2.49569737     -0.11971224      0.02248159
C       1.29013819     -0.69161199     -0.01091712
C      -0.00801437     -0.02522548     -0.00942172
C      -0.13663509      1.47378483     -0.02064410
N      -1.02844830     -0.81396650     -0.00397209
N      -2.27938885     -0.26613910     -0.04948849
H       2.63929939      0.95201004      0.05406711
H       3.39239630     -0.72355479      0.02133326
H       1.21395838     -1.77289004     -0.03585175
H      -0.79193744      1.79216385     -0.83550976
H      -0.57361361      1.84359772      0.91331654
H       0.82319338      1.96554910     -0.14676689
H      -2.39863369      0.63573297      0.40011439
H      -2.96315966     -0.93813537      0.26108702
