10
b3lypvtz=-191524.20566817
O      -1.65389298      1.81568333      0.14226087
C      -0.76956590      1.02078569      0.07880491
C      -0.81673915     -0.49892829     -0.02758050
C       0.63482190     -0.86842290     -0.06734259
C       1.33896298      0.25283242      0.00571189
O       0.56594314      1.40112378      0.09411300
H      -1.36063649     -0.90469505      0.82867314
H      -1.37753360     -0.78212566     -0.92131942
H       1.03695535     -1.86436425     -0.14191372
H       2.40168475      0.42801092      0.00849240
