13
b3lypvtz=-179795.5610376
O       2.36054242      0.65495376     -0.16405476
C       1.03378606      0.36945999     -0.13156366
C       0.01748817      1.19288366     -0.38650526
C      -1.27582408      0.42786943     -0.24698215
C      -0.81200651     -0.90925891      0.39259051
N       0.65719791     -0.95126603      0.17791556
H       2.83805676     -0.14623641     -0.41074754
H       0.11374844      2.19668691     -0.76420729
H      -1.74240973      0.25197613     -1.22225956
H      -2.02527394      0.92652548      0.37209018
H      -1.03446508     -0.91475359      1.46289381
H      -1.28971838     -1.77888189     -0.05651892
H       1.15867796     -1.32005852      0.97734908
