16
b3lypvtz=-170429.75159281524
C      -2.06439038     -0.03839110     -0.19076693
C      -0.79115200      0.58842062     -0.76121102
C       0.31215002      0.83950369      0.27486646
C       0.91164740     -0.40379910      0.90617156
O       1.52648531     -1.23953121     -0.12377374
C       2.81833771     -1.32952110     -0.10719834
H      -2.48181186      0.57398969      0.61222373
H      -1.88512746     -1.03673231      0.21187786
H      -2.82883629     -0.13562419     -0.96283242
H      -1.04173584      1.54500826     -1.22610326
H      -0.39676125     -0.04374740     -1.55983119
H       1.12459992      1.41149404     -0.18094230
H      -0.08106203      1.45544670      1.09022223
H       1.69465796     -0.16063510      1.62280750
H       0.15726851     -1.03479760      1.37467387
H       3.02573029     -1.99250938     -0.98018403
