9
b3lypvtz=-222439.19470667
C      -1.77086558      0.18798851      0.37765311
O      -1.89459607      1.34303581      0.68394248
N      -0.58572510     -0.45253990      0.08581587
N       0.60613168      0.20688161      0.12290048
N       1.55194663     -0.53051806     -0.16727167
O       2.74263682      0.14122462     -0.12732221
H      -2.61089855     -0.52247322      0.28932286
H      -0.57429209     -1.43442279     -0.16439192
H       2.53566226      1.06082345      0.12826256
