11
b3lypvtz=-179046.23741661
N       3.06725731      0.20695259      0.75294149
C       2.03052562     -0.14749664      0.40230608
C       0.70727724     -0.57504309     -0.03688697
C      -0.33586212      0.53856121      0.10658843
C      -1.71004132      0.11144415     -0.34240098
O      -1.97628895     -0.98178281     -0.76923536
H       0.40526288     -1.44913658      0.54186015
H       0.76575423     -0.90317788     -1.07570386
H      -0.41071871      0.88146179      1.14351052
H      -0.05258579      1.42487919     -0.47003869
H      -2.49068039      0.89333807     -0.25294081
