13
b3lypvtz=-177385.43042513
N       1.82822449     -0.96598440     -0.00861559
C       0.88881716     -0.10221948      0.03293912
N       0.97873039      1.26376878     -0.11533949
C      -0.51065199     -0.60446158      0.20070394
C      -1.60545641     -0.20927044     -0.72567452
N      -1.52709094      0.37759916      0.61561696
H       2.73862654     -0.52690036     -0.14501273
H       0.21481521      1.78884559      0.28630036
H       1.89134825      1.67900184     -0.03259359
H      -0.54865311     -1.60450815      0.61035806
H      -1.39416834      0.47757798     -1.53454986
H      -2.37414926     -0.94396845     -0.93174771
H      -2.19968199     -0.04399748      1.24518405
