13
b3lypvtz=-179800.16014239
C       2.23352631     -0.65271422      0.02171105
C       0.74156902     -0.72300541      0.01110621
C      -0.09458954      0.32740622     -0.00425001
N       0.27660577      1.67461077     -0.09943742
C      -1.56307363      0.10170103     -0.01491076
O      -2.11272793     -0.97050830      0.05461275
H       2.60704377      0.25033031      0.51264558
H       2.64664668     -0.65947069     -0.99344292
H       2.66142291     -1.51038822      0.54254475
H       0.27138970     -1.69704144     -0.01047603
H      -0.32250246      2.31434275      0.40170753
H       1.24828767      1.86664654      0.08659220
H      -2.16257928      1.03506567     -0.09127793
