13
b3lypvtz=-226402.68541963
C       1.53565356     -0.03571006      0.24762782
O       2.47962589      0.97011464      0.43296894
O       0.23305350      0.54014117      0.22495548
C      -0.74925224     -0.24535680     -0.39476387
N      -1.99689380      0.44721680     -0.48593201
O      -0.90538216     -1.41641667      0.38068639
H       1.57946828     -0.79289005      1.03613369
H       1.75474983     -0.49917235     -0.71936721
H       2.37045872      1.33133335      1.31874767
H      -0.41418595     -0.50213634     -1.41106480
H      -2.23674803      0.82659283      0.42434943
H      -1.93156116      1.21682890     -1.14109179
H      -1.71898642     -1.84054543      0.08675026
