14
b3lypvtz=-190625.68225084
C      -0.71814518     -1.01722058     -0.22156781
H      -0.72631527     -1.15171369     -1.31039036
H      -1.33097663     -1.79518719      0.23318218
C      -1.16771559      0.39502335      0.15654452
H      -1.89052831      0.80928782     -0.54570942
H      -1.61986280      0.39822318      1.15113778
N       0.07999622      1.18366646      0.17110001
H       0.12581008      1.85560954     -0.58075275
C       1.20120390      0.27732407      0.05968351
H       1.99832809      0.50493025      0.77432042
N       0.63510416     -1.02075028      0.34678600
H       1.22250123     -1.76863473      0.00436742
O       1.75645812      0.40474622     -1.26817697
H       2.70594197      0.25649559     -1.22012454
