8
b3lypvtz=-209211.35747191
C      -0.06676146     -0.01524659     -0.07417796
N       0.75800939      0.89803353      0.56494324
N       1.94070851      0.54521483      0.34487212
O       1.92382116     -0.58817590     -0.43228550
N       0.61780309     -0.93836279     -0.68748149
N      -1.42053509      0.12259547     -0.07205158
H      -1.95321055     -0.69176978     -0.32767837
H      -1.79983505      0.66771122      0.68385953
