14
b3lypvtz=-167317.76115939
N       1.81819958     -0.02484536     -0.57849982
C       0.79453174     -0.00363443      0.48841094
C      -0.11630301      1.19327656      0.33817674
C      -1.28279862      0.79440570     -0.17727740
N      -1.34586368     -0.57725369     -0.40734227
C      -0.20523551     -1.17530209      0.30935842
H       2.58518943     -0.63646864     -0.31884197
H       2.21194262      0.90129415     -0.69744927
H       1.25194353     -0.05022278      1.48389036
H       0.18456954      2.21391335      0.51258013
H      -2.12304116      1.41317534     -0.45924632
H      -2.24117153     -1.01938591     -0.26726103
H      -0.52012131     -1.55278202      1.28829659
H       0.23783639     -1.99054816     -0.26225610
