13
b3lypvtz=-177355.61500901214
C      -1.90954621      0.34935636      0.27215707
C      -0.40793650      0.51322449      0.08826606
N       0.27735135     -0.71779617      0.39792092
C       1.66584652     -0.87313445      0.32045977
N       2.45750047      0.07334443     -0.03727475
N       3.17742344      0.91772604     -0.35778999
H      -2.42631699      1.27908846      0.03655279
H      -2.14900103      0.08174235      1.30316227
H      -2.29979782     -0.42975846     -0.38559547
H      -0.04732674      1.32593557      0.73262796
H      -0.19807901      0.82027182     -0.94478801
H      -0.24972233     -1.51764831      0.68646270
H       2.10960485     -1.82235213      0.56823078
