15
b3lypvtz=-157251.62117816
C       2.23300345      0.05569512      0.00653314
C       0.74091215      0.08796616     -0.00456820
C      -0.06178034      1.14736639     -0.00092073
C      -1.50826428      0.74894952     -0.02815172
N      -1.45929156     -0.71171083      0.16650506
C      -0.07931365     -1.17740959     -0.03629539
H       2.60834959     -0.48569118      0.87980956
H       2.65603291      1.05975655      0.02140623
H       2.62269556     -0.46437591     -0.87380090
H       0.26194722      2.17934601      0.01378833
H      -1.98076532      1.04172237     -0.97872944
H      -2.08722410      1.23264566      0.76753025
H      -2.11733199     -1.19702115     -0.42361094
H       0.22450946     -1.87643685      0.75324270
H       0.06834391     -1.70606226     -0.99178595
