16
b3lypvtz=-193799.13954647
C       2.78314719     -0.17258695     -0.16240586
C       1.43204085      0.35183789      0.32124449
C       0.26200179     -0.52019027     -0.13192290
C      -1.09524207     -0.00587679      0.32191143
O      -1.40167409      1.28272486     -0.17482604
O      -2.05825854     -0.95365999     -0.09197282
H       2.97396415     -1.18164801      0.20959634
H       2.82421954     -0.21159041     -1.25328034
H       3.60026615      0.46576974      0.17683837
H       1.43482747      0.41106331      1.41404359
H       1.28002412      1.37246912     -0.03608592
H       0.37910290     -1.53841667      0.24690997
H       0.24398505     -0.59808940     -1.22500191
H      -1.11735502      0.11939856      1.40969563
H      -1.37045773      1.23889612     -1.13859042
H      -2.92069577     -0.64244812      0.20389040
