16
b3lypvtz=-170474.78849369
C       1.23668224      1.61045103      0.14794412
C       0.13966924      0.76480519     -0.45539337
C       0.16057137     -0.75801618     -0.44705719
C       1.28229282     -1.57166457      0.15402930
C      -0.82122897     -0.01783910      0.39964817
O      -2.17531406     -0.12109118      0.03830407
H       2.09013574      1.69917544     -0.52847941
H       0.87734519      2.62045113      0.35878970
H       1.60539374      1.19468591      1.08599665
H      -0.31213043      1.18401104     -1.34745947
H      -0.28915719     -1.19886823     -1.32903830
H       2.12042487     -1.66561921     -0.54027161
H       0.93817846     -2.57946537      0.39634874
H       1.66576528     -1.12827941      1.07321857
H      -0.63913808     -0.01353423      1.47275430
H      -2.60751821      0.71602075      0.23658173
