12
b3lypvtz=-192268.08656064
O       1.71472716     -0.01238227     -0.90808624
C       0.93517900     -0.03830485      0.25500691
C      -0.22566843     -1.02527006      0.05034379
C      -1.39771611     -0.09427794     -0.13081460
C      -0.99580746      1.14258637      0.12782207
O       0.32704349      1.25626769      0.47896208
H       2.39856989      0.65812613     -0.80132227
H       1.55022093     -0.23529087      1.13501518
H      -0.01963613     -1.64859317     -0.82072578
H      -0.34985657     -1.68535434      0.91262556
H      -2.39362957     -0.38935853     -0.41483983
H      -1.54352620      2.07185184      0.11611314
