9
b3lypvtz=-201573.49633603
C       1.16819120     -0.05374319     -0.54913621
O       2.08269810      0.72873141     -0.50507590
C      -0.13023295      0.22792847      0.18871711
N      -0.31542116      1.27868957      0.87432096
C      -1.24437332     -0.77056203      0.10960449
O      -1.16163910     -1.79711160     -0.51738806
H       1.22156470     -0.99582823     -1.11427734
H       0.52712561      1.86490484      0.83685838
H      -2.14791308     -0.48300923      0.67637659
