13
b3lypvtz=-156467.95850683
C      -1.47509118      0.84135833     -0.18140056
C      -0.87703369     -0.21761036      0.75302350
C       0.38428414     -0.84206607      0.20652265
N       0.39458690     -2.07352513     -0.12910932
C       1.53665764      0.01642322      0.08604471
C       2.49933247      0.73016922     -0.00726242
H      -1.74418907      0.40223624     -1.14289347
H      -2.37647210      1.26861255      0.25874631
H      -0.77248016      1.65513014     -0.36441107
H      -1.58635156     -1.02749065      0.91983439
H      -0.64921920      0.23846537      1.72065082
H       1.31130235     -2.34561193     -0.48532873
H       3.35467346      1.35390908     -0.09154136
