11
b3lypvtz=-179017.14716299
C       1.05908639      0.70560883      0.03086058
C       1.32746475     -0.58507975     -0.13545470
O       0.35049530     -1.58181507     -0.20481432
C      -0.95463518     -1.09760555     -0.08249328
C      -1.25656146      0.18556011      0.08457775
N      -0.25757490      1.16245289      0.15058597
H       1.85116841      1.43601498      0.07792616
H       2.32417566     -0.98062609     -0.23203934
H      -1.68985759     -1.88214806     -0.13883993
H      -2.28188884      0.50782111      0.17380519
H      -0.47187255      2.12981663      0.27588596
