18
b3lypvtz=-147947.2879894
C       1.94434637     -1.17327722     -0.20293216
C       1.16325032     -0.13748651      0.09572437
C       1.66670494      1.27947539      0.02402711
C      -0.26899069     -0.32863956      0.53382711
C      -1.31669076      0.20373520     -0.45795308
C      -2.74905401     -0.04240545      0.01404803
H       1.58258169     -2.19218731     -0.14087941
H       2.97205777     -1.03919521     -0.51697897
H       1.55150097      1.78126557      0.98964836
H       2.71859037      1.31649248     -0.25676535
H       1.10302983      1.86947090     -0.70300980
H      -0.45300574     -1.39198514      0.70503038
H      -0.41816097      0.17344115      1.49757559
H      -1.16014034     -0.27450462     -1.42874597
H      -1.16805019      1.27480579     -0.61523773
H      -2.93940240      0.44803945      0.97146814
H      -2.94363662     -1.10902483      0.14634840
H      -3.47560655      0.34020492     -0.70458999
