17
b3lypvtz=-158006.89511382
C      -1.96605783     -1.10815793     -0.20653270
C      -1.13273765     -0.11381929      0.08919553
C      -1.53598931      1.33292813      0.02816045
C       0.28914412     -0.39318400      0.51229204
N       1.25109637      0.18563538     -0.42461670
C       2.63701058     -0.00126436     -0.02057847
H      -2.99048772     -0.92267392     -0.50439717
H      -1.65249002     -2.14339047     -0.15231992
H      -0.86124255      1.89131678     -0.62231136
H      -1.46506405      1.79312823      1.01866537
H      -2.55740785      1.45113378     -0.33170368
H       0.42721747     -1.47714210      0.64903194
H       0.47141460      0.07165673      1.48843206
H       1.10198314     -0.21971613     -1.34122165
H       2.91359373     -1.05115993      0.16703669
H       2.82825917      0.55805653      0.89775676
H       3.29948880      0.39309257     -0.79144717
