11
b3lypvtz=-176592.23195668
C       1.99635659     -0.69822002     -0.00234486
N       1.36923630      0.40227669     -0.09912720
C      -0.02599370      0.45451361      0.02694358
C      -0.65253447      1.63416900      0.04495598
N      -0.71651829     -0.78378565      0.24233902
N      -1.86454396     -0.83449296     -0.22186203
H       3.07642225     -0.68009989     -0.12024039
H       1.52157790     -1.65828030      0.19869853
H      -0.07730796      2.54312628     -0.04344286
H      -1.72336076      1.68808098      0.16436429
H      -2.25023489     -1.75272574      0.04312393
