14
b3lypvtz=-169708.30371851
C      -1.50043651     -0.17078823      0.05092636
C      -0.73352196      1.16317346      0.10328115
C       0.64734778      0.78206318     -0.42552055
C       1.57871363      0.04553908      0.51581491
C       0.68750603     -0.71638525     -0.41890753
O      -0.51215816     -1.20871943      0.13192080
H      -2.19649182     -0.31160479      0.87705550
H      -2.05370399     -0.26343461     -0.89124595
H      -0.68363038      1.55567415      1.12058329
H      -1.20532421      1.92127603     -0.52191180
H       1.07535022      1.35238929     -1.23721353
H       1.32421651      0.01719491      1.56722255
H       2.63852933      0.07692182      0.29874993
H       1.09201553     -1.31004862     -1.22854511
