15
b3lypvtz=-157231.78695284
C       2.45123806     -0.62175361      0.01132410
C       1.63645888      0.63561061      0.01219416
C       0.30747715      0.74749607      0.03097969
C      -0.68502599     -0.34215168      0.04641198
C      -2.02463588     -0.10184257      0.64926261
N      -1.89504352     -0.23291053     -0.80344696
H       3.07826947     -0.67784469      0.90586301
H       3.13074743     -0.63902215     -0.84516820
H       1.84300347     -1.52348780     -0.02641667
H       2.21035460      1.55698284      0.00069522
H      -0.11796200      1.74860031      0.02916500
H      -0.29766332     -1.35144123      0.08638028
H      -2.21338769      0.87797329      1.07315302
H      -2.54471406     -0.91570785      1.13941806
H      -1.91815858      0.68269198     -1.24273328
