9
b3lypvtz=-224822.06222251078
C      -0.58506990     -0.87120433     -0.63817548
C      -0.17037168      0.14700320      0.10243067
N       1.29260379      0.38085788      0.29922128
O       2.05834834     -0.39754764     -0.24551161
O       1.61073751      1.33005140      0.98799820
O      -0.87953700      1.07720809      0.75776245
H       0.13294656     -1.52828736     -1.09692534
H      -1.63989390     -1.05178513     -0.78864582
H      -1.81976373      0.91370389      0.62184563
