13
b3lypvtz=-177369.29844922
C       2.89949613     -0.25770885      0.09401038
N       1.64138146      0.42676844     -0.13065040
C       0.44376108     -0.20640140     -0.07760499
C      -0.77496801      0.37567552      0.00356194
N      -1.88077050     -0.45077839     -0.01204030
N      -2.98530640      0.14493569      0.06410510
H       3.13298203     -0.38574144      1.15680299
H       3.71033078      0.30041159     -0.37261239
H       2.86280016     -1.24354962     -0.36849390
H       1.63815385      1.42349524      0.01414976
H       0.48364887     -1.28776284     -0.13613043
H      -0.92204648      1.45128288      0.07573378
H      -3.70676296     -0.58553381      0.04633447
