12
b3lypvtz=-166501.97936544
N       2.07215535     -0.93922641      0.35369597
C       0.99576995     -0.32788558      0.18412096
C       0.08121884      0.37727611     -0.82294934
C      -1.06837894     -0.47319976     -0.19994665
C      -0.22511988      0.06681847      0.99716967
N      -0.11056948      1.41915979      0.28177226
H       2.61472027     -0.99159700     -0.50834056
H       0.25031136      0.65170686     -1.86082184
H      -2.05626057     -0.01938543     -0.29090009
H      -1.08965277     -1.54822883     -0.38497036
H      -0.40873857     -0.01669051      2.06394332
H      -1.05555555      1.80125229      0.18722665
