14
b3lypvtz=-169726.84348591
O       2.14170549      0.21547839     -0.35422737
C       0.96440359      0.44017003      0.43568564
C      -0.03879159      1.29698893     -0.29435454
C      -1.13144865      0.61565422     -0.62797577
C      -1.10557589     -0.80510302     -0.12679912
C       0.16320211     -0.84674421      0.75882627
H       1.85812737     -0.02288261     -1.24374204
H       1.34693048      0.91098276      1.34181629
H       0.17113551      2.32387479     -0.56211621
H      -1.95582183      1.01248012     -1.20697582
H      -1.06789212     -1.51318949     -0.96099729
H      -2.00662214     -1.05495079      0.43809320
H       0.78145114     -1.72753413      0.59087035
H      -0.12080348     -0.84522500      1.81189640
