12
b3lypvtz=-223174.83058901
F      -1.74074223     -0.79891424      0.13417447
C      -0.84347984      0.07361355     -0.42874551
F      -0.88986232      1.22569108      0.31434677
C       0.52961454     -0.51936907     -0.42438791
C       1.39727955     -0.42117388      0.79861504
C       1.74205616      0.37171015     -0.43118944
H      -1.21265886      0.31631549     -1.42786878
H       0.58248871     -1.43379325     -1.00103396
H       1.00333155      0.11983629      1.64639381
H       2.00325673     -1.28011878      1.04843272
H       2.58664557      0.06166222     -1.02987370
H       1.57701944      1.43908245     -0.39529751
