14
b3lypvtz=-190622.97812426
C      -2.49486881     -0.12213174     -0.41117542
N      -1.35588800      0.25749053      0.42091452
C      -0.21370804     -0.58674323      0.29046143
C       0.99066578     -0.04790823      0.03046116
N       1.24913207      1.30441946     -0.02421378
O       2.12909109     -0.77661787     -0.15123868
H      -3.33342061      0.54740892     -0.21126335
H      -2.22474290     -0.02416113     -1.46342395
H      -2.83512544     -1.15588694     -0.24927051
H      -1.65082892      0.33692447      1.38727151
H      -0.30985642     -1.66583883      0.41198627
H       1.94924471      1.56366154     -0.70302143
H       0.39547473      1.84169600     -0.08150940
H       1.89453576     -1.71066893     -0.15895937
