12
b3lypvtz=-145659.19396358
C       2.09738214      0.00001101     -0.00001032
C       0.75933101      0.00000373     -0.00000606
C      -0.12508601      1.17572327      0.00001746
C      -1.39942953      0.73611713     -0.00000733
C      -1.39942102     -0.73613522     -0.00000973
C      -0.12507245     -1.17572649      0.00002014
H       2.66240360      0.92332103      0.00000122
H       2.66241322     -0.92329313     -0.00000229
H       0.21821146      2.19832410      0.00002444
H      -2.28928119      1.34781093     -0.00001770
H      -2.28926566     -1.34783922     -0.00001932
H       0.21823742     -2.19832315      0.00002648
