12
b3lypvtz=-166570.12294099
C      -2.31039275     -0.41945628     -0.00825309
C      -0.85199408     -0.75435816      0.00528238
C       0.13579913      0.15614458     -0.00081270
N      -0.03472540      1.54588945     -0.06726541
C       1.50057626     -0.28200387     -0.00671340
N       2.60724877     -0.60570888     -0.00257543
H      -2.50961934      0.52568739     -0.51690049
H      -2.87872996     -1.19490404     -0.52201153
H      -2.72059745     -0.34427409      1.00482761
H      -0.56575650     -1.79586987      0.02379485
H      -0.89240271      1.88411005      0.33925917
H       0.76040402      2.08087571      0.24332504
