10
b3lypvtz=-212383.74933803
C      -1.45333835      0.35401538      0.22070855
N      -2.24570304     -0.61912852      0.06361183
C       0.02749578      0.31493255      0.13342285
N       0.62993113     -0.78282188     -0.12461209
O       2.02543602     -0.56187899     -0.15378354
O       0.62866665      1.49901067      0.34478804
H      -1.85531124      1.34168996      0.44471679
H      -1.72279911     -1.47459001     -0.13982898
H       2.38050411     -1.43323869     -0.35233124
H       1.58511806      1.36200951      0.26540257
