13
b3lypvtz=-156492.35431815
C       1.10519986      0.89025544      0.11944190
C      -0.12302594      1.40992741      0.06202147
C      -1.28527986      0.50466807     -0.23623733
C      -0.98575863     -0.91620285      0.24652264
N       0.35120882     -1.41492275     -0.09620976
C       1.28430676     -0.54820891     -0.12076479
H       1.98007565      1.50418274      0.29134276
H      -0.28917148      2.47483900      0.17290058
H      -1.47265673      0.51250601     -1.31845994
H      -2.20118785      0.87066557      0.23174972
H      -1.06846726     -0.95943896      1.34051388
H      -1.71996151     -1.61891003     -0.14750626
H       2.29115418     -0.90552974     -0.33474288
