14
b3lypvtz=-167305.27198266
C      -2.04842330     -0.93823074     -0.17280022
N      -1.41041446     -0.10586602      0.52560456
C      -0.75055088      0.99707735     -0.15034930
C       0.75054988      0.99707871      0.15034812
N       1.41041526     -0.10586439     -0.52560443
C       2.04842525     -0.93822737      0.17280137
H      -2.13607813     -0.87132970     -1.26417577
H      -2.54656746     -1.77386391      0.31468706
H      -0.90492599      0.97893971     -1.23733250
H      -1.17249728      1.92506154      0.24422129
H       1.17249486      1.92506306     -0.24422364
H       0.90492505      0.97894266      1.23733133
H       2.13608329     -0.87132269      1.26417643
H       2.54657393     -1.77385820     -0.31468531
