15
b3lypvtz=-157214.96226295
C       0.47077401      0.07667605      1.32532206
C       1.32330291     -0.05045104      0.03275525
C       0.33828478     -1.16393837     -0.41816158
C      -0.54757768     -0.02743987      0.15868478
C       0.37309163      0.97920503     -0.62751871
N      -1.96708380     -0.08820662      0.30994536
H       0.49605423     -0.76568273      2.01691142
H       0.51908337      1.03254706      1.84956127
H       2.40701045     -0.07168210     -0.03468043
H       0.35423263     -2.09483545      0.14897608
H       0.26507411     -1.34527574     -1.49177093
H       0.41658709      2.00077566     -0.24673259
H       0.30473020      0.95555288     -1.71623766
H      -2.42739891     -0.19183073     -0.58691677
H      -2.32616503      0.75458597      0.74327377
