15
b3lypvtz=-157171.36674506
C       1.50086742      0.80784009      0.10515259
C       1.49643907     -0.77897275     -0.12129249
C      -0.00624494     -0.64938228      0.29202120
N      -1.50400960     -0.83894634     -0.01360302
C      -1.54553992      0.69927283      0.09581526
C      -0.02174073      0.70937463     -0.27402324
H       2.15205936      1.40268129     -0.53343191
H       1.68510717      1.04899405      1.15076244
H       1.64883031     -1.01236220     -1.17423302
H       2.15605795     -1.38712340      0.49691332
H       0.00613362     -0.59779213      1.38486238
H      -1.60851726     -1.05706433     -1.00373306
H      -1.76609800      0.96862651      1.12728466
H      -2.24733696      1.18628531     -0.58073366
H      -0.01818150      0.60279172     -1.36442743
