17
b3lypvtz=-158006.688613
C      -1.19991953      1.42881827      0.21205054
C      -0.72451500      0.19349628     -0.02277102
C      -1.67510139     -0.97147658     -0.14446206
N       0.62677083     -0.09145189     -0.22924557
C       1.56545211      1.00845630     -0.13924901
C       1.16462996     -1.36128784      0.23458176
H      -0.56932967      2.29437142      0.33814318
H      -2.26568069      1.59028735      0.26668050
H      -1.58039832     -1.66887287      0.69080865
H      -1.49888452     -1.53365760     -1.06431933
H      -2.70014846     -0.60885565     -0.15554293
H       1.66143820      1.40975332      0.88055367
H       2.54717448      0.66596812     -0.46458714
H       1.25198358      1.82108044     -0.79390421
H       1.30603274     -1.39194874      1.32561620
H       0.51606660     -2.18655502     -0.04568700
H       2.13470308     -1.52934830     -0.23352922
