12
b3lypvtz=-189821.5053660949
C      -0.18412453      1.20313551      0.03330464
C      -1.36020796      0.40000502     -0.45818929
N      -0.88759342     -0.76577016     -0.08876584
O      -1.24237613     -1.95436052     -0.15933586
C       0.38935071     -0.15261352      0.53232696
N       1.64264356     -0.58031666      0.03672040
H      -0.38087935      1.93724973      0.81616882
H       0.43089312      1.66957031     -0.73859275
H      -2.30371000      0.59691894     -0.94365705
H       0.33875016     -0.29483331      1.61045805
H       1.86409486     -1.52228986      0.33338178
H       1.69315898     -0.53669548     -0.97381985
