17
b3lypvtz=-186329.41974982
C      -2.25641616     -0.27117164      0.08900005
C      -1.06670346      0.51629515     -0.46155963
C       0.18050268      0.52403087      0.43906362
C       1.24170960      1.49752719     -0.08539775
C       0.77032081     -0.86477325      0.63543791
F       1.16615454     -1.41242647     -0.59255403
H      -2.03817101     -1.33660476      0.17598996
H      -3.12224287     -0.17278451     -0.56758330
H      -2.54947656      0.09156134      1.07736322
H      -1.37124134      1.55384087     -0.62244119
H      -0.78808766      0.12375278     -1.44245939
H      -0.12585904      0.85318884      1.44045185
H       2.09352882      1.55978093      0.59484816
H       0.82846097      2.50103131     -0.19702075
H       1.61461243      1.17610414     -1.05880977
H       0.05162904     -1.55676986      1.07662558
H       1.65853022     -0.82613293      1.27013947
