10
b3lypvtz=-209976.20764767
C      -0.71592355     -0.20245994      0.16235386
N      -1.01977342     -1.41769951      0.28061582
N      -1.62387656      0.82581535      0.19513550
O       0.55735168      0.37180154      0.02718546
N       1.61240841     -0.60781709     -0.03303745
N       2.70097860     -0.09146153     -0.13371483
H      -0.20562782     -2.01910673      0.30285019
H      -2.57895115      0.52819694      0.08424676
H      -1.37055360      1.67123223     -0.28807898
H       2.64396743      0.94149872     -0.15212743
