14
b3lypvtz=-190641.38692417
N      -2.34001772      0.22225158     -0.43377952
C      -1.05305261     -0.35907559     -0.05537233
C       0.04651942      0.16566272     -0.98236290
N       1.34722715     -0.41626314     -0.71236276
C       2.38065143      0.22290987     -0.10697080
O       3.45303174     -0.27675775      0.15626193
H      -2.39383933      1.19422419     -0.15188291
H      -3.10191894     -0.25676353      0.02885640
H      -0.75591230     -0.17256709      0.98570410
H      -1.12394339     -1.44315541     -0.17281402
H       0.13833334      1.24853718     -0.87020821
H      -0.24394564     -0.02020835     -2.01805202
H       1.50588394     -1.38754815     -0.93737717
H       2.14098292      1.27865348      0.12036021
