12
b3lypvtz=-192266.81537704344
C      -1.01304341      0.81127321     -0.18898630
C      -0.44839977     -0.57080093      0.12200661
C       1.00835994     -0.73250214     -0.26636942
C       1.76701565      0.23760599     -0.71426123
O       2.43411108      1.09789807     -1.12200989
O      -0.64949878     -0.92349304      1.49225648
H      -0.97593592      1.02519923     -1.25848217
H      -0.45634585      1.59097303      0.33693965
H      -2.05042011      0.85906334      0.13824455
H      -1.02771674     -1.31984790     -0.42179063
H       1.47765591     -1.69992237     -0.14647049
H      -0.06578199     -0.37544649      2.02892286
