9
b3lypvtz=-199142.318133365
C      -0.81336055     -0.73072806      0.23003170
N      -2.02712529     -0.44328521     -0.02741919
C       0.33149857      0.11600795     -0.01487131
N       1.52737934     -0.28054801      0.28930586
N       2.57976253     -0.63681097      0.56041577
O       0.12688699      1.35739459     -0.57993998
H      -0.58026867     -1.69689099      0.67690568
H      -2.10350159      0.48688661     -0.44145891
H       0.95872866      1.82797411     -0.69296960
