16
b3lypvtz=-170491.67278443
C      -2.14831858     -0.02241052      0.15609795
C      -0.73329487     -0.01061043     -0.38265820
C       0.11104043      1.22575745     -0.02072593
C       1.54545727      0.66708797      0.14120918
C       1.36452916     -0.84995772     -0.06486750
O      -0.01219625     -1.11365637      0.17037937
H      -2.72201199      0.80852045     -0.25778509
H      -2.65350540     -0.95180161     -0.10744873
H      -2.13918272      0.06877039      1.24341386
H      -0.75625376     -0.12243990     -1.47761682
H       0.04313579      1.99826579     -0.78642883
H      -0.24487196      1.65724075      0.91571058
H       2.24312877      1.08853739     -0.58195679
H       1.93535725      0.88128703      1.13541795
H       1.94528839     -1.46065666      0.62465393
H       1.63227346     -1.13670102     -1.09075193
