14
b3lypvtz=-167320.89058679
C       2.67944910     -0.13916806     -0.10618408
C       1.44756710      0.23101537      0.24743937
N       0.28909916     -0.48327466     -0.00162211
C      -0.99269773      0.06446504     -0.02936487
C      -1.26327101      1.37561738     -0.11469861
N      -1.96635929     -0.94428270     -0.00099177
H       2.87033407     -1.03394676     -0.68529391
H       3.53069136      0.44956482      0.19803413
H       1.27906623      1.13773188      0.81402152
H       0.38428362     -1.37282229     -0.46744445
H      -0.49446569      2.09778750     -0.33656926
H      -2.27358798      1.73403347      0.01239480
H      -1.85167477     -1.59769905      0.76269856
H      -2.90852914     -0.58726292     -0.03995233
