17
b3lypvtz=-158011.71891719
C       2.18611508     -0.00000461     -0.10724079
C       0.99087918     -0.00002250     -0.68187242
C      -0.35807842      0.00000135      0.02025334
C      -1.13405756      1.25718586     -0.40871756
C      -1.13406035     -1.25720900     -0.40863661
N      -0.29298152      0.00004783      1.48566711
H       3.09383118     -0.00002434     -0.69590976
H       2.30583422      0.00003031      0.96919389
H       0.93557350     -0.00005782     -1.76789163
H      -1.24525444      1.29931589     -1.49312149
H      -2.12451455      1.25526241      0.04659240
H      -0.60970966      2.16078041     -0.09138335
H      -2.12451703     -1.25525412      0.04667388
H      -1.24525796     -1.29940882     -1.49303778
H      -0.60971408     -2.16078412     -0.09124431
H       0.20794325     -0.81485089      1.82190125
H       0.20794415      0.81496716      1.82184985
