15
b3lypvtz=-157222.2792556
C       1.72073920     -1.62574610     -0.11515442
C       1.02533439     -0.67361396      0.11381219
C       0.14592722      0.48792997      0.34822058
C       0.84241688      1.79243286     -0.05383478
N      -1.15013833      0.39028859     -0.32902164
C      -1.98163531     -0.73105771      0.09543706
H       2.33920724     -2.46623356     -0.30894339
H      -0.06675384      0.52954686      1.42139832
H       1.05651327      1.79646414     -1.12396556
H       0.19223893      2.63587139      0.17447644
H       1.78633001      1.90838053      0.47760984
H      -0.99361960      0.34209472     -1.32954415
H      -2.90718845     -0.72429828     -0.48017038
H      -1.50722400     -1.71459020     -0.01998695
H      -2.24638561     -0.60631925      1.14743585
