16
b3lypvtz=-168076.09358877
C      -1.82479230      0.62736751     -0.49046005
C      -0.49057493     -0.04499480     -0.61248220
C       0.49057514      0.04499226      0.27924064
C       1.82479403     -0.62736787      0.15721494
N       2.90687071      0.36189750      0.26068288
N      -2.90687172     -0.36189327     -0.59394756
H      -1.95103232      1.32565298     -1.32432430
H      -1.84742531      1.22508181      0.43092745
H      -0.35988899     -0.65911490     -1.49982470
H       0.35989041      0.65911191      1.16658271
H       1.95104253     -1.32564325      0.99108580
H       1.84742143     -1.22509241     -0.76416584
H       2.89434322      0.97491635     -0.54641094
H       3.80905040     -0.09900682      0.26800299
H      -2.89435280     -0.97492161      0.21313931
H      -3.80904953      0.09901463     -0.60126972
