12
b3lypvtz=-192268.69050713
C      -1.69114235      0.94358208      0.28503810
C      -0.55979061      0.50692034     -0.26216458
O       0.04622844      1.19172753     -1.27246152
C       0.08463005     -0.80072979      0.13082927
C       1.58513400     -0.77497470      0.28887294
O       2.31989147      0.02484931     -0.24287656
H      -2.13320707      1.87481472     -0.03751224
H      -2.19709681      0.36699217      1.04394542
H       0.99850944      1.00340575     -1.23758695
H      -0.36514493     -1.19824135      1.04093201
H      -0.09849123     -1.55474188     -0.65069596
H       2.01047958     -1.58360417      0.91358007
