12
b3lypvtz=-168946.75850965
C      -2.88477923      0.32684115      0.00001817
C      -1.50730148     -0.14404045      0.00000884
C      -0.37553156     -0.56452840      0.00000694
C       0.96607808     -1.02236760     -0.00000618
C       2.00813997     -0.17660694      0.00001413
O       1.92350172      1.16979898      0.00004781
H      -3.42327898     -0.02624843     -0.88222040
H      -3.42294341     -0.02525542      0.88285892
H      -2.92797459      1.41765231     -0.00059042
H       1.16277525     -2.08566273     -0.00003245
H       3.03313649     -0.51913257      0.00000377
H       0.98614674      1.41533408      0.00005886
