17
b3lypvtz=-181250.70832511567
C      -0.13171830      1.34907609     -1.23032367
C      -0.31582016      0.59253981      0.09476067
C       0.89893157      0.25669625      0.92373734
N       1.79828372     -0.59199349     -0.00095452
H       2.51154024     -1.04797251      0.55534319
H       1.16837468     -1.31099827     -0.36250158
H       2.25750294     -0.15242965     -0.81772621
O      -1.00151797     -0.63315898     -0.28474497
C      -1.71026562     -1.23792755      0.78415967
H      -1.09164459      1.52181176     -1.72009434
H       0.48544241      0.79082483     -1.94069677
H       0.34463160      2.31340061     -1.04703954
H      -0.97746071      1.19387009      0.73147883
H       1.47203747      1.15896318      1.15496010
H      -2.57402979     -0.62607644      1.07328993
H      -1.06428839     -1.37223782      1.65550791
H      -2.06999909     -2.20438791      0.43084400
