16
b3lypvtz=-168067.57855504
C      -1.17799304     -0.91438613     -0.54046384
C      -0.29671221      0.15675671      0.06091042
C      -0.92457686      1.32137474      0.72609929
N      -0.24212574      0.28867995      1.53170604
C       1.06280893      0.32884958     -0.58756282
N       1.86527873     -0.88220662     -0.39510007
H      -0.65776398     -1.87235944     -0.54520202
H      -1.43654098     -0.67016090     -1.57360678
H      -2.10835448     -1.02008156      0.02090943
H      -2.00723236      1.36500130      0.75393758
H      -0.43492243      2.28792931      0.71630626
H      -0.92951044     -0.32190563      1.96155609
H       1.52844187      1.23383124     -0.17724929
H       0.93213121      0.48699649     -1.66174715
H       2.74967391     -0.80635208     -0.88203596
H       2.07739786     -0.98196696      0.59154281
