12
b3lypvtz=-168919.25249782
C      -1.08392504      0.19373512      0.51686094
C      -0.41090259     -0.92664497     -0.32919334
C       1.04795663     -0.84184390      0.14836011
C       1.26305819      0.47137213      0.10729339
C      -0.09743951      0.98742275     -0.38914542
O      -0.40701641      0.02109333     -1.45509626
H      -2.12585491      0.35585091      0.24540631
H      -0.92803155      0.20201043      1.59408038
H      -0.86685020     -1.88810626     -0.54327551
H       1.69526348     -1.65708268      0.42762489
H       2.13922142      1.05310189      0.34306318
H      -0.22547952      2.02909124     -0.66597866
