11
b3lypvtz=-202336.6734523
N       2.50031193      0.18615145     -0.37250615
C       1.27848312      0.19505486     -0.69447604
C       0.15947413     -0.05229368      0.29096697
O       0.38856993     -0.27783020      1.46011740
C      -1.25586133     -0.00956880     -0.22559768
O      -2.19807695     -0.25287448      0.77578702
H       2.58329364     -0.01060715      0.63170211
H       0.99951803      0.38931922     -1.73068612
H      -1.41595974      0.97483695     -0.69048288
H      -1.34155733     -0.74607426     -1.03857990
H      -1.69819542     -0.39611392      1.59375527
