10
b3lypvtz=-165782.94819327
C      -1.09002727     -0.45054091     -0.27915544
C       0.36800446     -0.32825472     -0.20949065
C       1.56302915     -0.18487067     -0.12544547
C       2.91643064     -0.02297026     -0.03076102
N       4.06195699      0.11537683      0.05014887
N      -1.84033789      0.60893109      0.39543742
H      -1.38332494     -1.41332287      0.14606790
H      -1.39097551     -0.47947793     -1.32912338
H      -1.60555434      1.51319713      0.00340060
H      -1.59920127      0.64193228      1.37892119
