12
b3lypvtz=-166515.16989696
C      -1.24736521      0.20989518     -0.80836026
C      -0.59007828     -0.10504765      0.55215173
C      -0.74217961      1.41204211      0.79199568
N      -0.41780709      1.51233031     -0.71713165
C       0.89177009      0.84147356     -0.62641453
N       0.86414707     -0.16901356      0.14131207
H      -2.30978891      0.44337700     -0.77799272
H      -1.00224866     -0.42710195     -1.65622620
H      -0.88907191     -0.89249958      1.23802080
H      -0.02300568      1.90270617      1.44534756
H      -1.75549634      1.76247550      0.97812100
H       1.74792453      1.21166289     -1.17442345
