13
b3lypvtz=-203073.0171967
C      -0.93944454     -1.47567974      0.40031370
C       0.01297558     -0.37601357      0.04571689
C      -0.30283954      1.04744755      0.46448942
O      -0.39904605      1.94218905     -0.63108757
N       1.05735117     -0.70496209     -0.60556919
O       1.88524462      0.42220787     -0.87040468
H      -1.91649392     -1.28835608     -0.05210112
H      -1.08977623     -1.51700561      1.48249431
H      -0.56532996     -2.43790288      0.05807721
H      -1.26778913      1.07406299      0.96883469
H       0.45886624      1.37447779      1.18398691
H       0.45092211      1.90897598     -1.08627363
H       2.61535964      0.03055874     -1.35847692
