14
b3lypvtz=-169702.07098693
C       1.23852477     -0.55642272     -0.00000405
O       1.02745743      0.88011717      0.00000517
C      -0.41249921      0.95888330      0.00000645
C      -0.82438258     -0.08092387     -1.06546943
C      -0.21119675     -1.04278609     -0.00000567
C      -0.82438086     -0.08093684      1.06547042
H       1.79820057     -0.84987803      0.89084033
H       1.79819932     -0.84986619     -0.89085307
H      -0.72268518      1.99901615      0.00001299
H      -1.90151251     -0.19673355     -1.16490062
H      -0.34351959     -0.01146961     -2.04082116
H      -0.38667228     -2.11531942     -0.00001245
H      -1.90151070     -0.19674741      1.16490181
H      -0.34351643     -0.01149387      2.04082227
