14
b3lypvtz=-190607.42164984817
C       1.53935617     -0.04778384      0.84691304
C       1.38681344     -0.18157470     -0.62703356
N       0.34972453     -0.67231993      0.27923557
C      -0.91540301      0.03609407      0.34748321
N      -1.87642551     -0.41909645     -0.63278592
O      -0.72905213      1.43527910      0.17808788
H       2.19644479     -0.71495045      1.39086751
H       1.44126438      0.95116734      1.25220870
H       1.92846615     -0.95025863     -1.16357924
H       1.19206036      0.73086622     -1.17559112
H      -1.32636000     -0.16926680      1.34175085
H      -1.44600037     -0.42002385     -1.55272424
H      -2.14981945     -1.37355072     -0.42957748
H      -1.59106936      1.79541864     -0.05525520
