14
b3lypvtz=-167294.01559221317
C      -2.51411062      0.72863116     -0.40486985
C      -1.46225308     -0.26898923     -0.05100507
N      -0.21083730     -0.00995145     -0.16780401
C       0.74618109     -0.90415794      0.14858321
N       2.04135540     -0.55992726     -0.00113159
C       2.63004091      0.55328473     -0.42466911
H      -3.15302585      0.95454033      0.45558051
H      -3.17650531      0.34607849     -1.18883301
H      -2.05495158      1.65231138     -0.75330069
H      -1.80509099     -1.24463566      0.31721712
H       0.55962416     -1.90459670      0.52353795
H       2.67668425     -1.30082767      0.26340688
H       2.01894545      1.38462125     -0.72301415
H       3.70394348      0.57361859     -0.45054626
