14
b3lypvtz=-193028.33779476
C      -1.76300536     -0.86854044     -0.02241085
C      -0.66882339      0.14491915     -0.01499133
O      -1.17819164      1.42628692      0.01392843
C       0.63898872     -0.13617538     -0.00956732
C       1.76867582      0.84603079     -0.00930369
O       1.03156477     -1.47022247      0.09002397
H      -2.44677866     -0.67171954     -0.85157085
H      -2.34728013     -0.80580098      0.89913343
H      -1.36027533     -1.87218350     -0.11572773
H      -0.46112477      2.06499671      0.06555376
H       2.34240616      0.78505219      0.91960534
H       2.46261324      0.63705647     -0.83170556
H       1.44816970      1.88105405     -0.13593950
H       1.73972986     -1.63387997     -0.54228211
