14
b3lypvtz=-169693.86167582
C      -1.79597573     -0.74048196      0.02694115
C      -1.82380280      0.75913213      0.12398253
C      -0.60068245      0.06210109     -0.41750962
C       0.64419742      0.04092349      0.39478241
C       1.90775278      0.60409102     -0.08673535
O       1.70549051     -0.81318183     -0.05650258
H      -2.39624273     -1.21864830     -0.73394440
H      -1.70699884     -1.30571683      0.94499445
H      -2.44114934      1.31104096     -0.57042014
H      -1.75652784      1.20382758      1.10803632
H      -0.43160663      0.12894182     -1.48505282
H       0.48806704      0.00769226      1.47192513
H       2.63875759      0.98486421      0.61989700
H       1.94826003      1.04380735     -1.07882707
