13
b3lypvtz=-179780.72043227
C       2.80954099      0.30913973     -0.68399567
N       1.89023261      0.28972476      0.19131113
C       0.57742281      0.06910774     -0.23770272
C      -0.42421907      0.03901429      0.64027412
C      -1.85840489     -0.18685441      0.30575201
O      -2.02685615     -0.36903244     -1.09248367
H       2.62386320      0.16213754     -1.75430522
H       3.83646471      0.47884145     -0.37339435
H       0.39119545     -0.07713054     -1.30042049
H      -0.19582951      0.18929585      1.68937461
H      -2.44542636      0.67142346      0.66427448
H      -2.21838788     -1.06415401      0.86304386
H      -2.95949591     -0.51151342     -1.27292809
