14
b3lypvtz=-193032.73875088
C       2.55011367     -0.10802382     -0.49415285
C       1.45594974      0.20579800      0.53513434
C       0.19519513     -0.58055521      0.32055947
C      -0.99197494     -0.04740648      0.03294377
O      -1.21073801      1.28287895     -0.08795468
O      -2.15463462     -0.73548571     -0.17934341
H       2.81150535     -1.16857498     -0.48049549
H       3.45932229      0.46077688     -0.28818178
H       2.21650335      0.13710262     -1.50373442
H       1.22442571      1.27116811      0.50820776
H       1.84977821      0.00370959      1.53734495
H       0.25038144     -1.66137149      0.38794270
H      -2.14295082      1.41296138     -0.29556194
H      -1.98501450     -1.67889985     -0.08985141
