16
b3lypvtz=-168076.86426453
C      -2.38864950     -0.18132921     -0.27301924
N      -1.27993387      0.41503415     -0.31908483
C      -0.39709499      0.34566540      0.83119867
C       1.04595780     -0.01046195      0.40737997
C       1.12860825     -1.40869279     -0.20130932
N       1.64824361      0.95786962     -0.51268809
H      -2.73038144     -0.75538567      0.59790696
H      -3.05789282     -0.13703072     -1.12992390
H      -0.37784643      1.34145261      1.28501987
H      -0.76023555     -0.36303550      1.59097831
H       1.64666224      0.00030051      1.32168944
H       0.72719806     -2.16190515      0.47984342
H       0.55951123     -1.45930430     -1.13146769
H       2.16517532     -1.65600735     -0.42591615
H       1.02784065      1.08832864     -1.30531722
H       1.72923747      1.86431669     -0.06526921
