17
b3lypvtz=-181321.78788572
C      -1.59263940      0.23618658      0.00044035
C      -0.08362392     -0.02196521      0.08736442
C       0.22213830     -1.50618106     -0.12881179
C       0.65013569      0.83414148     -0.96524674
O       2.05462335      0.72854511     -0.85040140
N       0.49147062      0.37670588      1.39133068
H      -2.13007398     -0.36131642      0.73956506
H      -1.82027078      1.28840360      0.18717845
H      -1.98536783     -0.01961028     -0.98644653
H       1.29681237     -1.68074641     -0.12942697
H      -0.17968517     -1.84519001     -1.08429661
H      -0.23103192     -2.11451459      0.65789937
H       0.37746811      0.51124069     -1.97172091
H       0.32732609      1.88038622     -0.85478088
H       2.22492617      0.73010159      0.10376343
H       0.26917734     -0.30223470      2.10944487
H       0.10861498      1.26604752      1.69414522
