12
b3lypvtz=-215569.80974101
O       1.25051289      1.22926276     -0.43443473
C       1.06041162     -0.12550143     -0.87638296
C      -0.20659208     -0.68695231     -0.30431909
C      -1.07020496     -0.05618621      0.50811576
O      -2.20512548     -0.61170491      0.99967676
O      -0.97833822      1.19651714      0.97101028
H       2.06292931      1.58041963     -0.80554051
H       1.92159495     -0.73194001     -0.56621474
H       1.02758895     -0.14759902     -1.97366100
H      -0.42729446     -1.70753671     -0.58915159
H      -2.27722239     -1.51289291      0.67078873
H      -0.15826013      1.57421399      0.60581308
