10
b3lypvtz=-168174.79452882
C      -0.59225622     -1.32472784      0.52045318
C      -0.19089196     -0.16304091     -0.01239727
C      -1.17775217      0.68531435     -0.76665214
O      -2.33270717      0.38654479     -0.93129278
C       1.13755178      0.33960008      0.08642033
C       2.23873872      0.81942725      0.13258700
H       0.08363661     -1.96394787      1.06952950
H      -1.62136808     -1.63457192      0.39934985
H      -0.76199673      1.62651488     -1.17081418
H       3.21704523      1.22888720      0.18286969
