11
b3lypvtz=-199969.01308263
N       2.64399909     -0.02017774     -0.01258540
C       1.42476684      0.31842458     -0.07646657
N       0.30973063     -0.48882733      0.08836637
C      -1.04286395     -0.14576371      0.01414986
N      -1.32467437      1.19856874     -0.00954984
O      -1.89329270     -1.00866536     -0.05284587
H       2.76065595     -1.01278050      0.19755908
H       1.18756446      1.35517091     -0.30235270
H       0.45008888     -1.48634059      0.15731580
H      -2.30712143      1.40295080      0.06878804
H      -0.70800341      1.85225620      0.44151624
