13
b3lypvtz=-177328.071158366
C       1.96052456      0.69783597     -0.11845201
N       0.77862858      0.81584061      0.32474907
N      -0.04104097     -0.35251651      0.18533603
C       0.47315056     -1.55596915     -0.26354970
C      -1.31630425     -0.10828814      0.42592106
N      -1.89166479      1.12798681      0.24126207
H       2.29158597     -0.19846543     -0.64130620
H       2.61985528      1.54574126      0.01942014
H      -0.28347357     -2.24826772     -0.60271320
H       1.28818962     -1.95301343      0.33223110
H      -1.95938709     -0.96121050      0.57511644
H      -2.69906909      1.30551263      0.81865425
H      -1.22099484      1.88481362      0.24668970
