8
b3lypvtz=-188338.86637397276
C      -1.56483199     -0.27132639      0.07827795
N      -0.36274265     -0.65728671     -0.07368495
C       0.62737548      0.36406100      0.05069018
O       0.45372954      1.53107371      0.27972561
C       1.98088115     -0.17150014     -0.13926910
N       3.05784088     -0.55090587     -0.28163891
H      -1.83511411      0.76480050      0.28944761
H      -2.35713830     -1.00891610     -0.00650911
