14
b3lypvtz=-167300.84464604
C      -2.62978859      0.56702168     -0.45829587
C      -1.46336544      0.38040190      0.14598042
C      -0.51584265     -0.75598948     -0.13170770
C       0.80366959     -0.28005769     -0.67094057
N       1.88591889     -0.48487368     -0.03828251
N       3.06929201     -0.08845295     -0.61567818
H      -3.26718379      1.40720520     -0.21565159
H      -2.99347907     -0.11986549     -1.21413504
H      -1.13269372      1.09225571      0.89706379
H      -0.97932385     -1.44395338     -0.84604584
H      -0.31416358     -1.31452302      0.78520284
H       0.79241294      0.25572664     -1.62792933
H       3.75737328      0.08960436      0.09958800
H       2.98717397      0.69520019     -1.25916842
