12
b3lypvtz=-192221.80283609
O       2.07035924      0.17898453      0.73278999
C       0.90087300      0.42835080      0.00400606
C      -0.33189423     -0.06284764      0.71490453
C      -1.55587833      0.26769205     -0.11932883
O      -0.96202842     -0.35030445     -1.30440732
C       0.16732309     -0.76357867     -0.53036703
H       2.78500017      0.00168639      0.11242196
H       0.87182283      1.36059526     -0.55803520
H      -0.30059920     -0.36468371      1.75000948
H      -2.45248219     -0.27799399      0.17946734
H      -1.79380292      1.32160421     -0.28116990
H       0.60120696     -1.73960477     -0.70039107
