14
b3lypvtz=-193051.4289825
C      -2.45990714     -0.16091455      0.48014465
C      -1.29332240     -0.24301473     -0.49581159
C       0.05688752     -0.21850292      0.18436002
O       0.24668370     -0.14170788      1.37195820
O       1.05416201     -0.29252834     -0.72348126
C       2.38764108     -0.27503363     -0.18944837
H      -2.41694180      0.75603524      1.06685393
H      -3.40739529     -0.17992481     -0.05887975
H      -2.44583623     -0.99598924      1.17972613
H      -1.34038341     -1.15329209     -1.09898720
H      -1.31385613      0.58152697     -1.21295377
H       2.54529044     -1.12312297      0.47536446
H       2.56636510      0.64535690      0.36477974
H       3.04869557     -0.33685994     -1.04896320
