8
b3lypvtz=-211678.85813803822
C       1.80759428     -0.22358135      0.32440699
N       0.66046478     -0.62229766      0.31904063
C      -0.53240864     -0.01244875     -0.06640343
N      -1.67877093     -0.53300511     -0.02728082
O      -0.33782400      1.25096736     -0.50793241
O       2.93791546      0.03014290      0.38110649
H      -1.64711006     -1.48204160      0.32802000
H      -1.20986089      1.59226422     -0.75095746
