14
b3lypvtz=-193026.42486978
C       1.99876775     -0.19810238     -0.44242195
C       0.65938358     -0.01962647      0.20152759
C      -0.50108355     -0.39300320     -0.34221404
C      -1.84946164     -0.20425495      0.27633216
O      -2.73843973      0.53726276     -0.57108492
O       0.68149017      0.56145448      1.44855848
H       2.50588138      0.76559623     -0.55653384
H       2.64236371     -0.83803202      0.16900650
H       1.90475307     -0.65035832     -1.42695659
H      -0.47295814     -0.85693820     -1.31958142
H      -1.75776495      0.26923699      1.25679413
H      -2.34557418     -1.16677109      0.41855836
H      -2.30854045      1.37314587     -0.77809705
H       1.58118295      0.82039031      1.66611257
