6
b3lypvtz=-234153.69187259
C       0.78611393      0.11391184     -0.03647147
O       1.95253476      0.28294832     -0.09057662
O       0.12600871     -1.06928817      0.18561634
N      -1.24106968     -0.79169841      0.16537159
N      -1.42415609      0.40548275     -0.04167333
O      -0.19943163      1.05864366     -0.18226652
