14
b3lypvtz=-193021.88678401
C       2.50120606     -0.21278159      0.30685651
O       1.34074108      0.23334618     -0.38185247
C       0.22872171     -0.56788405     -0.20207831
C      -0.96186232      0.00365572     -0.01372940
C      -2.25103375     -0.73021820      0.10902751
O      -1.10029396      1.36201710      0.06386998
H       3.30614516      0.47431833      0.05368355
H       2.78069172     -1.22261355     -0.01149580
H       2.34588426     -0.21309363      1.38999087
H       0.36824905     -1.63866916     -0.27729816
H      -2.73685668     -0.48854957      1.05724795
H      -2.93732321     -0.44129809     -0.69069532
H      -2.09263826     -1.80627215      0.06038242
H      -0.21837787      1.74443565     -0.04392632
