11
b3lypvtz=-199891.9594875
C      -1.15469517     -0.38841209      1.36510084
C      -0.51908826     -0.23393196      0.20218262
N      -1.08449317     -0.01246076     -1.04081496
O       0.85582410     -0.42217657      0.20120828
N       1.53772237      0.20863737     -0.89091140
N       2.73778970      0.04915901     -0.83511083
H      -0.60361581     -0.63253862      2.25793482
H      -2.22987091     -0.31300993      1.41665636
H      -2.03768532      0.30976435     -0.99595678
H      -0.51515854      0.52677400     -1.67385410
H       3.01327102     -0.50588451     -0.00643484
