14
b3lypvtz=-146360.37521461432
C       1.78222305      0.37557569      0.20925625
C       0.32099786      0.11250110      0.04212567
C      -0.89495228      1.06637279      0.01483382
C      -1.58517364     -0.29308147     -0.18257912
C      -0.37056021     -0.90637396     -0.85640841
C      -0.51062416     -1.04400264      0.58402951
H       1.98972529      0.85916033      1.16642698
H       2.15981810      1.02599849     -0.58292380
H       2.35091761     -0.55607038      0.17567635
H      -0.93951404      1.75629802     -0.83269562
H      -1.11394639      1.58516838      0.95246321
H      -2.61948469     -0.57736439     -0.30968585
H      -0.13924873     -1.56011490     -1.67660502
H      -0.43017778     -1.84406706      1.29608604
