9
b3lypvtz=-199178.86379567
N       0.83439532      0.02518121     -0.03755028
C       0.22366779      1.01424405      0.65381830
N      -0.89421404      0.94591080      1.32458021
C      -1.03005052      2.24004454      1.74559036
N      -0.09547421      3.06919543      1.39107941
O       0.78037561      2.22882899      0.63295781
H       0.53113114     -0.91061381      0.16876701
H       1.80341588      0.14842192     -0.27475935
H      -1.86064696      2.57918687      2.34491653
