13
b3lypvtz=-177395.10717342
C       2.37451298     -0.09979833      0.01151028
N       1.03534272     -0.64268913     -0.00627627
C      -0.08959100      0.13179985      0.00057388
N      -0.16674031      1.40786543      0.00395582
C      -1.37088297     -0.65719431     -0.00023000
N      -2.52516460     -0.15049431      0.00280780
H       3.09099994     -0.91798601      0.00332418
H       2.56236833      0.52715370     -0.86476413
H       2.55277715      0.50337097      0.90679648
H       0.92274636     -1.64044785      0.01687788
H       0.74070044      1.86455450      0.00514714
H      -1.27470472     -1.74633709     -0.00416924
H      -2.42760332      0.87177658      0.00564316
