12
b3lypvtz=-192249.98625066
O      -2.05802370      0.84742498     -0.17540403
C      -1.79396149     -0.27084891      0.18431213
C      -0.42292017     -0.89423127      0.12173872
C       0.64555649      0.01103517     -0.42902561
C       1.54069010      0.77339127      0.44027069
O       1.99457606     -0.41743069     -0.21491846
H      -2.58389328     -0.93369618      0.59559508
H      -0.50470796     -1.80542950     -0.48447961
H      -0.15656619     -1.24238475      1.12553960
H       0.45508116      0.40359554     -1.42266276
H       1.97991278      1.69773150      0.08111080
H       1.43330520      0.69575884      1.51783143
