12
b3lypvtz=-189860.63819348
N       2.86434733     -0.40102001      0.00000284
C       1.81164641      0.31086059      0.00000649
N       0.49546312     -0.09415938     -0.00000142
C      -0.59536696      0.78262631     -0.00000354
C      -1.88857199      0.45917494     -0.00000174
O      -2.45478703     -0.78978339      0.00000505
H       2.65847766     -1.40134512     -0.00000831
H       1.91395384      1.39550704      0.00001900
H       0.33679186     -1.08908196     -0.00001739
H      -0.33026688      1.82892610     -0.00000601
H      -2.64120684      1.23151498     -0.00000789
H      -1.78636052     -1.48079508      0.00005092
