17
b3lypvtz=-158011.46867897
C      -1.91951552     -1.17192620     -0.22866549
C      -1.14273675     -0.13977082      0.09280836
C      -1.64786202      1.27772909      0.03932812
C       0.28500438     -0.33292882      0.54241838
C       1.33200666      0.20078136     -0.44307054
N       2.67985136      0.00587993      0.10071899
H      -1.55663517     -2.19115400     -0.17927343
H      -2.94539295     -1.03456315     -0.54733041
H      -1.08235484      1.87948817     -0.67681819
H      -2.69857533      1.31694729     -0.24557939
H      -1.53667860      1.76545177      1.01229687
H       0.47015044     -1.39787145      0.70642468
H       0.44595647      0.16864668      1.50184429
H       1.19045542      1.27356154     -0.58804652
H       1.17309204     -0.27660269     -1.42024529
H       2.89220715     -0.98359569      0.16593091
H       3.37362124      0.40815001     -0.51829133
