12
b3lypvtz=-166550.24034096
C      -1.98374606     -0.00021025      0.00001407
C      -0.64519617     -0.00007241      0.00000454
C       0.07503206      1.28582088     -0.16861789
N       1.24887505      1.59144121      0.20559682
C       0.07531334     -1.28581021      0.16861192
N       1.24923482     -1.59116376     -0.20558242
H      -2.54950419     -0.90772462      0.16725289
H      -2.54968840      0.90719117     -0.16721556
H      -0.51355936      2.07294465     -0.64501295
H       1.71424803      0.80912678      0.66819331
H      -0.51312732     -2.07307631      0.64495862
H       1.71444820     -0.80873013     -0.66813537
