11
b3lypvtz=-179025.2072272552
C      -0.62814577     -0.94576953      0.02028535
C      -1.10777605      0.45991533      0.07606454
N      -0.03987480      1.22895146      0.02534201
C       1.17191868      0.59132543     -0.06014098
C       0.92753158     -0.81301775     -0.07095062
O       1.70340028     -1.75597251     -0.13484889
H      -1.00870938     -1.49000915     -0.84766537
H      -0.90380909     -1.52439825      0.90537445
H      -2.10045701      0.86750025      0.14444757
H      -0.10537943      2.23725001      0.04798466
H       2.09130100      1.14422473     -0.10589274
