10
b3lypvtz=-217401.98522745
N       2.43950776     -0.22334605     -0.04909797
C       1.26366040     -0.69931978      0.04668274
C      -0.00542767      0.03123097      0.03349828
O      -0.01972745      1.39124924      0.00708883
C      -1.14742581     -0.66411063      0.00780624
F      -2.34406519     -0.07162634     -0.01667297
H       2.44185475      0.79046332     -0.18810197
H       1.16697897     -1.77895199      0.15968911
H       0.81192820      1.72513768      0.36381293
H      -1.18659396     -1.74225041     -0.02136323
