15
b3lypvtz=-178132.59170494904
C      -1.91500561     -0.11750807     -0.26870722
C      -0.70498183      0.08612425      0.55351973
N      -1.31916030      1.22640044     -0.14539834
C       0.65244076     -0.48527407      0.14569837
N       1.76218290     -0.03241516      1.00234838
N       0.91078019     -0.22583143     -1.26513189
H      -2.87962497     -0.23843448      0.20820258
H      -1.78616846     -0.63450937     -1.21135089
H      -0.83375021      0.13472925      1.63025104
H      -0.80413978      1.40943021     -1.00146253
H       0.60139928     -1.57056700      0.26605197
H       1.72546597      0.97705976      1.11327995
H       1.67101841     -0.42227277      1.93477300
H       1.25827237      0.72115109     -1.38072664
H       1.66127129     -0.82808265     -1.58134750
