10
b3lypvtz=-215024.55194365
N       1.24615671      1.31267442      0.01995002
C       0.72934774      0.14711601      0.00411700
N       1.35142952     -1.06729000     -0.03791912
C      -0.77793990      0.09197191     -0.00156516
N      -1.58367295      1.03746831     -0.01596971
F      -1.24843128     -1.17856420      0.01957035
H       2.26365834      1.29080943      0.01971451
H       2.34589387     -1.11977555      0.09270134
H       0.81579454     -1.90650046      0.09143643
H      -1.05402658      1.90978413     -0.02748564
