11
b3lypvtz=-179032.61068443
N       3.01381656      0.13705875     -0.00000750
C       1.86512578     -0.40926243      0.00000046
C       0.57319482      0.27499655     -0.00000173
C      -0.60513313     -0.36148698      0.00001155
C      -1.87852104      0.37171926      0.00000384
O      -2.96403076     -0.15965815     -0.00000025
H       2.93628975      1.15719795     -0.00001894
H       1.82692507     -1.49994205      0.00001442
H       0.59424632      1.36260199     -0.00001524
H      -0.66761351     -1.44417933      0.00002578
H      -1.78237387      1.47689244     -0.00002139
