13
b3lypvtz=-179769.30304171954
C      -1.50328460      0.25060066     -0.36947181
C      -0.09500656     -0.37028454     -0.10648673
C      -0.73147268     -0.62723965      1.23430846
N      -1.89139070     -0.12021974      1.02930426
C       1.10575025      0.56246913     -0.16077921
O       2.27729330     -0.01615868      0.40321745
H      -1.52429930      1.32869816     -0.53623691
H      -2.11630060     -0.24327681     -1.12349863
H       0.10749005     -1.27496545     -0.68830660
H      -0.38187091     -1.09045016      2.15392623
H       0.90737769      1.45884578      0.42906152
H       1.27897224      0.88195939     -1.19604324
H       2.56674183     -0.73997810     -0.16063127
