16
b3lypvtz=-147192.31692119
C      -0.66290116      1.30247641     -0.05621293
C       0.66291287      1.30246666      0.05622089
C       1.49368767      0.04814989      0.10902356
C       0.69701919     -1.19072381     -0.31623090
C      -0.69703287     -1.19071338      0.31623197
C      -1.49368760      0.04816780     -0.10902619
H      -1.19259222      2.24785886     -0.11160337
H       1.19261790      2.24784107      0.11161539
H       2.37572511      0.16600137     -0.52737172
H       1.88414541     -0.08620234      1.12545393
H       0.59482812     -1.19462188     -1.40587899
H       1.24085014     -2.09916770     -0.04879928
H      -0.59484313     -1.19460828      1.40588028
H      -1.24087452     -2.09915150      0.04880276
H      -1.88413319     -0.08617955     -1.12546199
H      -2.37573372      0.16602139      0.52735759
