11
b3lypvtz=-179050.3630153
C      -2.13474685     -0.04025756      0.00000783
C      -0.64726130      0.02118861     -0.00001043
C       0.17955079      1.09112850     -0.00004012
O       1.47561535      0.63915891      0.00002344
C       1.35103815     -0.70684365     -0.00006366
N       0.13624904     -1.13353184      0.00001560
H      -2.49836712     -0.57548718     -0.87894789
H      -2.49835835     -0.57541031      0.87901466
H      -2.57006625      0.95845628     -0.00003548
H       0.03893920      2.15601678     -0.00004337
H       2.26218133     -1.28075754      0.00000643
