16
b3lypvtz=-168074.49291878
C       2.87892722     -0.00859846      0.20251056
N       1.84290114     -0.22390631     -0.48165045
C       0.56865558     -0.33863044      0.20616113
C      -0.42544822      0.69993364     -0.31437381
C      -1.83275313      0.56165551      0.28415684
N      -2.57880627     -0.65425409     -0.04325291
H       3.84066996      0.08630740     -0.29720308
H       2.87238772      0.09047135      1.29597421
H       0.67749007     -0.24447268      1.29801383
H       0.18321626     -1.34079928     -0.00399770
H      -0.47772368      0.62068922     -1.40375914
H      -0.03954644      1.69981679     -0.09276909
H      -1.77790626      0.63109560      1.37423960
H      -2.43261205      1.41441297     -0.04198177
H      -2.12686285     -1.47817894      0.33295362
H      -2.63605906     -0.78087227     -1.04737685
