13
b3lypvtz=-179789.73664527
C      -0.70237919      1.62893419      0.16931386
C      -0.10510572      0.46097830     -0.09950234
C      -0.93895739     -0.77249649     -0.23285291
O      -2.06180509     -0.89447733      0.19031390
N       1.24683418      0.30383098     -0.43022425
C       2.03927455     -0.66647445      0.32553274
H      -1.77509568      1.66511921      0.28349938
H      -0.14596044      2.55432423      0.24123156
H      -0.45210654     -1.59287963     -0.79610030
H       1.71855332      1.19442695     -0.49990524
H       2.15396947     -0.40083905      1.38353790
H       1.57390323     -1.65032538      0.27670984
H       3.02759631     -0.74787853     -0.12506814
