10
b3lypvtz=-209989.12764731
N       2.08493008      0.14984525     -1.38573625
N       1.02256319      0.16573281     -0.60533625
N      -0.04196693     -0.12849982     -1.19341357
C      -1.15755105     -0.15756824     -0.30226728
N      -1.21408807     -0.03837078      0.95468980
O      -2.26605640     -0.36085401     -1.04105870
H       2.91053286      0.57429631     -1.00392108
H       1.95006997      0.06976693     -2.38782124
H      -0.28698896      0.10794400      1.34416450
H      -3.00154469     -0.38219247     -0.41399992
