13
b3lypvtz=-208094.62936319
C       0.01225034      1.56884123     -0.27462994
C      -0.20382599      0.27673377     -0.05777798
C       0.89191683     -0.70464271      0.25091983
O       2.14709112     -0.04718412      0.32093912
C      -1.58589900     -0.29929565     -0.07340241
F      -1.67482666     -1.34998338     -1.00197537
H      -0.80548709      2.24047961     -0.50242410
H       1.00743058      1.98513777     -0.22229584
H       0.89133132     -1.48095991     -0.52300771
H       0.65689895     -1.20513105      1.20226689
H       2.83958991     -0.71246269      0.33474658
H      -2.32272210      0.45396184     -0.35125511
H      -1.85374820     -0.72559470      0.89799603
