12
b3lypvtz=-189856.58679152
N      -2.82509252      0.21525554     -0.18398106
C      -1.74248802     -0.28617973      0.23035013
C      -0.36855710      0.32416524      0.13379763
O       0.56107909     -0.72959120     -0.11554004
C       1.88480005     -0.42195227     -0.12295211
N       2.46938217      0.68033805      0.04591333
H      -2.66868974      1.11029001     -0.65442781
H      -1.77810570     -1.24990716      0.74103429
H      -0.33081350      1.07194998     -0.66405492
H      -0.12382716      0.81696527      1.08314619
H       2.45181163     -1.32867043     -0.31266901
H       1.84033380      1.46273971      0.21123937
