15
b3lypvtz=-180545.13678563
N       0.99663930      1.22896975      0.39605058
C       0.84444491      0.05295445     -0.45721847
O       1.71380177     -0.96098371      0.01944434
C      -0.59034951     -0.43504685     -0.49745188
C      -1.42239204     -0.51425229      0.75590018
C      -1.78086103      0.46863043     -0.32692547
H       0.53364887      2.03496640     -0.00815073
H       1.98352182      1.45108678      0.45776044
H       1.18746508      0.22385794     -1.48491089
H       1.40937805     -1.19878266      0.90399574
H      -0.71739340     -1.24940449     -1.19968245
H      -0.99706025     -0.10096050      1.65952206
H      -2.05213256     -1.38161173      0.89597701
H      -1.61658688      1.51507739     -0.11133982
H      -2.65228313      0.27398807     -0.93643863
