16
b3lypvtz=-147159.63444566
C      -2.44136366     -0.66665408     -0.08573574
C      -1.33489465      0.03154774      0.06131393
C      -0.62278184      1.29372102     -0.15833355
C       0.05640228      0.08405867      0.51051643
C       1.15357542     -0.67672788     -0.20898868
C       2.53426035     -0.04162456     -0.03647002
H      -3.32155521     -0.24003762     -0.55179648
H      -2.51148470     -1.69254208      0.25595585
H      -0.86773720      2.15114243      0.45786621
H      -0.31683531      1.54441168     -1.16864533
H       0.21094703      0.18436680      1.58215504
H       1.17396065     -1.70622182      0.16054124
H       0.90162253     -0.74078236     -1.27092399
H       3.29995553     -0.61314248     -0.56366226
H       2.54975361      0.97820172     -0.42553698
H       2.81907318      0.00208982      1.01695434
