9
b3lypvtz=-232486.00710117
C      -2.07583550     -0.85192454      0.00000558
C      -0.99605128     -0.08216159      0.00000855
F      -1.13774506      1.27333093     -0.00000273
N       0.29573621     -0.55208725      0.00000634
C       1.27046062      0.23309872     -0.00000374
F       2.50764241     -0.26181681     -0.00000379
H      -3.06251211     -0.41709819     -0.00000374
H      -1.95705037     -1.92267773      0.00000579
H       1.27046708      1.31835944     -0.00000227
