14
b3lypvtz=-193012.41044969
C      -1.46084872     -0.49505146     -0.30406560
C      -0.98590916     -0.07480936      1.07292844
C      -0.15774065      0.21452099     -0.14543249
C       1.13199535     -0.52782712     -0.39659594
O       2.25530198      0.13097762      0.18660230
O      -0.13145369      1.54433153     -0.61892740
H      -2.26591440      0.07379649     -0.74650029
H      -1.45059178     -1.54715773     -0.55624001
H      -0.64520774     -0.83789099      1.75941588
H      -1.49367914      0.76102739      1.53374531
H       1.08619267     -1.52131745      0.05120521
H       1.27562789     -0.64855299     -1.47604974
H       2.50180302      0.85622687     -0.39473074
H       0.34042435      2.07172622      0.03464509
