13
b3lypvtz=-179769.95326076
N       2.41647011      0.27496887      0.07917577
C       1.32140105     -0.58866783     -0.00580560
C       0.04278509     -0.23396321     -0.00280063
C      -0.73177489      1.05974002      0.00438955
O      -1.97938248      0.31953050     -0.01633605
C      -1.28082945     -0.95616497      0.00306086
H       3.24605475     -0.05195383     -0.39090951
H       2.22171391      1.23731681     -0.15396165
H       1.58745362     -1.63989064     -0.00755945
H      -0.64376215      1.67852990      0.90534429
H      -0.62551964      1.70347777     -0.87755592
H      -1.51890321     -1.55908760     -0.87965810
H      -1.52305670     -1.53088779      0.90358943
