11
b3lypvtz=-199910.42987746
C       2.10162655     -0.09726098     -0.14979743
N       1.13891182      0.72510648     -0.13697006
C      -0.17298843      0.23284413     -0.01696012
N      -0.99771363      1.00283326      0.75537553
N      -0.50290810     -0.84748151     -0.63167259
O      -1.88972543     -1.10680629     -0.41482328
H       3.10862206      0.28535155     -0.29371474
H       1.96778324     -1.17296835     -0.02804136
H      -0.70893054      1.95940062      0.86998794
H      -1.98368801      0.83782805      0.63375915
H      -2.06098954     -1.81884695     -1.03714303
