8
b3lypvtz=-214258.25646297407
C       1.27549665     -0.28648390     -0.00336521
N       2.41576093     -0.36824935     -0.38973629
N       0.14073163     -0.39349687      0.44542575
C      -1.03608582      0.00814722     -0.13923752
N      -2.16241880     -0.13389227      0.38093264
F      -0.84641925      0.58882670     -1.36280288
H       3.10820333      0.35510350     -0.26847511
H      -2.89526869      0.23004496     -0.22165360
