7
b3lypvtz=-60136.90827578
C       0.70871160      0.00000098      0.01889414
N      -0.74958512      0.00000188     -0.11655762
H       1.11673800     -0.87725059     -0.48511657
H       1.08526705     -0.00000274      1.05068372
H       1.11673839      0.87725595     -0.48511031
H      -1.14584536     -0.81088757      0.34328236
H      -1.14584455      0.81089008      0.34328527
