7
b3lypvtz=-60072.211760371596
C       0.89626277      0.17288125     -0.39292238
N      -0.59593687     -0.02118368      0.01432243
H      -1.05925650      0.87556925     -0.09231966
H      -0.84393404     -0.38374322      0.95114725
H      -1.01932523     -0.64123672     -0.66867290
H       1.28958787      0.81648045      0.40463026
H       1.33260202     -0.81876733     -0.21618500
