6
b3lypvtz=-72606.5947828
C      -0.66657528     -0.01929247     -0.00000047
O       0.74721893      0.11817385     -0.00000183
H      -1.08215132      0.98729842     -0.00000507
H      -1.03520518     -0.54085799      0.89007610
H      -1.03520608     -0.54086643     -0.89007172
H       1.13910893     -0.75916437      0.00000098
