14
b3lypvtz=-180259.96923422866
C       1.23196783      0.62291568      0.24642503
C       1.22516152     -0.83268445     -0.11641212
C      -0.18562451      0.92625699      0.56303552
C      -1.00378242      1.06492141     -0.73125466
N      -1.27252232     -0.40366449     -0.63345651
C      -0.13619313     -1.31762312     -0.07576839
C      -0.93652290     -0.44877972      0.80201901
H       1.66200283      1.30703071     -0.48594115
H       1.84811343      0.69397616      1.15563450
H       2.01555433     -1.51070661      0.19455218
H      -0.47197938      1.38805948     -1.62838045
H      -1.95597188      1.58684491     -0.64397034
H      -0.39403851     -2.35471228     -0.23721027
H      -1.62616489     -0.72183467      1.59072764
