15
b3lypvtz=-170197.08077491823
C      -0.87991069      1.29154438      0.07396902
C      -1.18773405      0.01604416     -0.68072963
C      -0.03883516     -0.96797598     -0.83711124
C      -0.75901170     -0.88929999      0.45776525
C      -0.00373145      0.43697306      1.01297590
C       1.35420211     -0.61440929     -0.42301688
C       1.44250196      0.45629198      0.61278707
H      -0.39534925      2.11960430     -0.44725300
H      -1.77394846      1.66089028      0.58479137
H      -2.05703813     -0.15957377     -1.30255534
H      -0.19251281     -1.78049459     -1.53405245
H      -1.30876667     -1.62728285      1.02356087
H       1.92597360     -1.52060429     -0.20151254
H       2.14523950      0.12641731      1.37933883
H       1.72892121      1.45187529      0.28104279
