10
b3lypvtz=-197050.68761625464
C       0.78812884      0.26543683      0.05434220
N       1.88687208     -0.59687616      0.39313337
N       3.04359992     -0.24836174      0.52337034
N      -0.37251293     -0.26329813     -0.04283306
N      -1.41859638      0.50149470     -0.35496231
N      -2.65372301      0.06302585     -0.48122214
H       1.07027486      1.30594764     -0.08709995
H       1.55035762     -1.58233056      0.51463193
H      -1.28817937      1.49598997     -0.51286315
H      -2.60622165     -0.94102839     -0.29175912
