   10
 DF-KS-SCF000/VTZ,I=VTZ-PP  ENERGY=-392.68907847
 C         -0.0634333176        1.2611009623        0.6384135959
 C          0.5583392279       -0.0950460259        0.2323875714
 O         -0.0876193384       -1.1276783817        0.2205952951
 N         -3.0811862292       -2.2642046012       -1.3874665753
 N         -3.3658699414       -1.2981028069       -0.8975180468
 O         -1.1950566913        1.3643523387        1.0129837813
 N          1.8616669101        0.0166569902       -0.1484098149
 H          0.6091125816        2.1406247088        0.5595680012
 H          2.3905994996        0.8393724602        0.0660480172
 H          2.3734472987       -0.8370756643       -0.2966018250
