   10
 DF-KS-SCF000/VTZ,I=VTZ-PP  ENERGY=-715.62430947
 C         -0.0566188417        1.4418400589        0.3384101735
 C         -0.5583570809        0.0382611241        0.0652852179
 O          0.1455168522       -0.9466861910        0.1055321177
 N          3.1836229129       -2.5805026809        0.1256652258
 N          3.2960813017       -1.9124947535       -0.7299650557
 S          1.4579554672        1.7979028501        0.7494220021
 N         -1.8885370991       -0.0000952366       -0.2360553577
 H         -0.7996217171        2.2342573384        0.2382949536
 H         -2.3144592048       -0.8936462621       -0.4151339373
 H         -2.4655826002        0.8211637426       -0.2414553299
