   12
 DF-KS-SCF000/VTZ,I=VTZ-PP  ENERGY=-356.72775877
 C         -1.8342108174       -0.4284160283        0.2204714728
 N         -0.4291572856       -0.1472671538        0.4026925254
 C          0.4215195850       -0.9302881994       -0.1059918856
 C          1.8964553853       -0.6978353011        0.0533469713
 O          2.3899556590        0.2614606964        0.5815686235
 N          1.2196771547        3.5108865938       -0.0882141850
 N          0.3030187103        3.1870143784       -0.5862497577
 H         -2.0357675923       -1.3273041309       -0.3761632814
 H         -2.3045497363        0.4378964939       -0.2522543182
 H         -2.2957325060       -0.5357169533        1.2046073324
 H          0.1415234827       -1.8235186520       -0.6830539792
 H          2.5272679607       -1.5069117237       -0.3707595183
