    8
 DF-KS-SCF000/VTZ,I=VTZ-PP  ENERGY=-714.42191210
 C          1.5380144051       -0.5923415869       -0.1213563226
 N          0.3994993048       -1.2092069988        0.3355109335
 C         -0.7553113173       -1.2867845231       -0.0400433812
 O         -1.8762183864       -1.4510582611       -0.2793248854
 N         -1.5073734136        1.9984373450        0.4720551821
 N         -1.8775279149        3.0053101897        0.2709764717
 S          1.6995295695        0.3137610377       -1.4631767476
 H          2.3793877429       -0.7781172026        0.5391203894
