    8
 DF-KS-SCF000/VTZ,I=VTZ-PP  ENERGY=-660.24303226
 C         -1.1107589900       -0.4712665337       -0.0870392888
 C         -1.0925943319        0.9717262849       -0.5146819976
 S          0.1922840231        1.7398472489       -1.1181866562
 N          2.9667750353       -0.3995819361        1.2252002143
 N          3.3523576149       -1.2949436803        0.7346485291
 O         -0.1401628444       -1.1761435227       -0.0109947629
 H         -2.1195734409       -0.8527248569        0.1667381649
 H         -2.0483270561        1.4830869958       -0.3956842026
