    9
 DF-KS-SCF000/VTZ,I=VTZ-PP  ENERGY=-1058.42063674
 C         -0.3276421887       -1.3283987662        0.1472731033
 C         -1.1068777040       -0.0685129895        0.1893118845
 S         -0.5545040110        1.4254934283        0.5639226560
 N          3.3171748310        2.2614834990       -1.0100001449
 N          3.6226216459        1.2196956552       -1.1234532348
 S          1.2401647383       -1.5100428890        0.4926856077
 O         -2.3858245721       -0.3269475626       -0.1384740038
 H         -0.9314171116       -2.1831402549       -0.1530911208
 H         -2.8736956278        0.5103698797       -0.1021682972
