   11
 DF-KS-SCF000/VTZ,I=VTZ-PP  ENERGY=-695.69779915
 C         -1.4118069438        0.6711870936        1.2331422478
 N         -1.6494455296        0.9644863531        0.0165096225
 C         -1.0998275609        0.2736113512       -1.0286514958
 N          0.1355691009       -0.1533224052       -1.0517394768
 S          0.9841159412       -0.9309719304       -2.2944250919
 N          3.8771005255       -0.2782879804        0.9593712095
 N          2.8163693649       -0.1191345171        0.7596472128
 H         -0.8507810908       -0.2161193109        1.5399949532
 H         -1.8002821137        1.3167436153        2.0137006950
 H         -1.6893240945        0.1476115441       -1.9255132701
 H          0.6883123907        0.0528670566       -0.2220366063
