    9
 DF-KS-SCF000/VTZ,I=VTZ-PP  ENERGY=-735.49938863
 C          0.3052667001        1.6672160130       -0.1765348806
 C          0.7671106582        0.2457768280        0.0010146053
 O          0.1501144288       -0.6464716895        0.5135158005
 N         -2.5139622564       -2.8951560629        0.8157776532
 N         -2.8972950036       -2.1800586860        0.0857631761
 S         -1.1166519597        2.2160417779        0.3406871499
 O          2.0122783739        0.1040753029       -0.5124463429
 H          1.0184159657        2.3078951902       -0.6892014100
 H          2.2747230931       -0.8193186736       -0.3785757615
