    9
 DF-KS-SCF000/VTZ,I=VTZ-PP  ENERGY=-1058.42467227
 C          0.0885338742        1.6752465818       -0.0786865969
 C          0.7010871748        0.3023231959        0.0312734241
 O          0.1111276490       -0.7352407783       -0.0598423795
 N         -2.5801172714       -2.9598990046        0.1493777234
 N         -2.7990276423       -2.2611395186        0.9585777145
 S         -1.4747691313        1.9428060354       -0.3603027980
 S          2.4834267210        0.4352355497        0.3229133910
 H          0.7927253802        2.4967860984        0.0464228694
 H          2.6770132559       -0.8961181596        0.3580669320
