    9
 DF-KS-SCF000/VTZ,I=VTZ-PP  ENERGY=-412.56615365
 C          0.2013945429        1.4382883798       -0.0714177675
 C          0.8712680051        0.0606424035        0.0460316612
 O          0.3375513088       -0.9365274956        0.4316620453
 N         -2.8688423734       -2.3985807981        0.2114720715
 N         -3.1800150185       -1.4533678831       -0.2359414297
 O         -0.9408567411        1.6098145445        0.2321706905
 O          2.1575243276        0.1580843581       -0.3569572556
 H          0.8586976939        2.2417282964       -0.4553303616
 H          2.5632782548       -0.7200818055       -0.2730047541
