    8
 DF-KS-SCF000/VTZ,I=VTZ-PP  ENERGY=-602.27701298
 C          1.5927738700        0.4400907664       -0.3525696220
 N          0.5562575490       -0.2602599706       -0.0211470865
 S          0.4305257691       -1.8723461547        0.4668622768
 N         -3.6548637433       -0.1201101224        0.4672354842
 N         -2.6147957145        0.1366320516        0.2609715865
 H          1.4597840450        1.4729471468       -0.6391635026
 H          2.5662886784       -0.0254634301       -0.3345866666
 H         -0.3359704638        0.2285097231       -0.0558271697
