   10
 DF-KS-SCF000/VTZ,I=VTZ-PP  ENERGY=-678.41042746
 C         -1.8225286757        1.8839495141       -0.1789367229
 C         -1.3949259429        0.8729397080       -0.6767920092
 C         -0.9329990231       -0.3044008464       -1.2830342167
 N          0.1894951959       -0.8784548571       -0.9236268502
 S          0.9156798631       -2.2717477430       -1.5105503530
 N          3.4808067703       -0.5121452133        1.7720461833
 N          2.5574712869       -0.3751430198        1.2074347120
 H         -2.1955702814        2.7748373592        0.2623293485
 H         -1.4958972759       -0.7799025116       -2.0749014614
 H          0.6984680726       -0.4099323800       -0.1761430703
