    8
 DF-KS-SCF000/VTZ,I=VTZ-PP  ENERGY=-391.38133837
 C          1.0723764666        1.3506055379        0.3126323541
 C          1.4961242436        0.0795106191        0.2627023571
 O          1.7235069942       -1.0441906090        0.2138208320
 N         -1.7883734681       -2.4871912406        0.3472063452
 N         -2.8431765648       -2.4518613979        0.0846654087
 O         -1.0985895357        0.7261809064        0.1671998795
 N         -0.3170984866        1.6429278990        0.2569055556
 H          1.7552303708        2.1840182953        0.3873316878
