    9
 DF-KS-SCF000/VTZ,I=VTZ-PP  ENERGY=-416.70167219
 C          0.3119380687       -1.0314868046        0.1248525643
 C          1.4201089074       -0.0504214718        0.3738473973
 O          1.3847483687        0.9878967166        0.9332903304
 N         -1.7890429859        2.8870643139       -0.6404336638
 N         -2.1856514342        1.9815166242       -1.0673887313
 N         -0.8346852231       -0.7919829814        0.5786854209
 F          2.5723961142       -0.5065840570       -0.1868578143
 H          0.6097644361       -1.9358115503       -0.4459499566
 H         -1.4895762518       -1.5401907795        0.3299544431
