   12
 DF-KS-SCF000/VTZ,I=VTZ-PP  ENERGY=-713.00632998
 C         -0.8271848888        0.1292035940        0.1556503437
 N          0.3452207489       -0.4455675902        0.1211411896
 S          0.6802551175       -2.0826478824        0.6420812934
 N          4.4774187533       -0.4532910887       -0.7491754659
 N          3.4538402402       -0.0826337207       -0.6769504073
 N         -1.9111170159       -0.5947750592        0.5074058391
 N         -1.0039637185        1.4650330389       -0.1345387237
 H          1.1211345165        0.0832400560       -0.2524629512
 H         -2.6535233718       -0.1172372108        0.9905045691
 H         -1.6501058172       -1.5245708801        0.8399956726
 H         -0.1911042884        1.9437053803       -0.4899032590
 H         -1.8408702657        1.6795413428       -0.6562231003
