   10
 DF-KS-SCF000/VTZ,I=VTZ-PP  ENERGY=-715.62072245
 C         -0.1409250899        0.8637445012       -0.1521349196
 C         -0.8523264422       -0.4805172967       -0.2080304119
 S         -0.0909354577       -1.8759277484       -0.6253508277
 N          3.9555721017       -0.1717601895        0.8184954076
 N          4.3673469783       -0.0334598476       -0.1825283468
 O          1.0171287427        1.0371534153       -0.3911516967
 N         -2.1533256822       -0.3730081410        0.1213000948
 H         -0.7988816413        1.7135678593        0.1383681734
 H         -2.7365558184       -1.1931557759        0.1181244581
 H         -2.5670976708        0.5133632233        0.3629080689
