   10
 DF-KS-SCF000/VTZ,I=VTZ-PP  ENERGY=-392.68809691
 C         -0.0147564195        1.0958645930       -0.1814227498
 C          1.0212931425        0.0244924769       -0.4281772650
 O          0.8056284552       -1.1088915997       -0.7629559151
 N         -2.0243865616       -2.8964255676        0.8671751741
 N         -2.2617658980       -1.9669415745        1.3960048278
 N         -1.2365762898        0.8315392181       -0.3680917953
 O          2.2579784879        0.5256631804       -0.2016837313
 H          0.3798901829        2.0486839197        0.1841448632
 H         -1.8174592457        1.6348071279       -0.1333964956
 H          2.8901541461       -0.1887917642       -0.3715969031
