   10
 DF-KS-SCF000/VTZ,I=VTZ-PP  ENERGY=-715.59247517
 C         -1.2140723789        0.4898920151        0.5238032772
 N          0.0557422799        0.6869198831        0.7799931203
 S          0.8051817389        1.8203507410        1.7413444269
 N          3.9150374327       -0.8874734463       -0.1624460687
 N          2.8463779864       -0.6831033601       -0.0831800323
 C         -1.6145772712       -0.5866531176       -0.3649639265
 O         -2.7668938154       -0.8305861238       -0.6503344726
 H         -1.9452026345        1.1389871276        0.9835735745
 H          0.6954445363        0.0404476981        0.3152430638
 H         -0.7770378842       -1.1887814371       -0.7780204625
