   10
 DF-KS-SCF000/VTZ,I=VTZ-PP  ENERGY=-715.61208113
 C         -0.6823559236        0.7384748363       -0.5523484989
 C          0.5640640667        0.7911527575        0.3034658193
 O          0.7667244002        0.1252535913        1.2764228360
 N          0.2413433605       -3.4325198830        1.0057932271
 N         -0.5821723232       -3.4117387745        0.2928484535
 N         -1.6148126839       -0.0542537138       -0.2491503694
 S          1.7302702729        2.0154144799       -0.3541583161
 H         -0.6894402585        1.4173747979       -1.4101240013
 H         -2.3900850374        0.0144055840       -0.9096168565
 H          2.6564641263        1.7964363343        0.5968676963
