   10
 DF-KS-SCF000/VTZ,I=VTZ-PP  ENERGY=-355.51232791
 C          2.1097089679        0.6092582965        0.1390576569
 C          0.8168979169        0.6984369644        0.3338745507
 N         -0.3568598386        0.7785443459        0.5689566209
 C         -1.6904195666        0.9142253415        0.3154283567
 O         -2.4158367006        0.0167776155       -0.0121279724
 N         -1.2004722183       -3.3657354565       -1.2580494955
 N         -0.5128448927       -2.7370383298       -0.6789462335
 H          2.5449532772       -0.3367133152       -0.1394454826
 H          2.7393314553        1.4816732698        0.2344592489
 H         -2.0344584004        1.9405712479        0.4967927598
