    9
 DF-KS-SCF000/VTZ,I=VTZ-PP  ENERGY=-735.49147617
 C         -0.2260010580        0.6830446088       -1.0946222873
 C          0.8137669707        0.2934606385       -0.0208343632
 O          0.5508630000        0.1267950309        1.1316401648
 N         -2.4082587642       -1.6649971785        1.3378578990
 N         -3.0335449520       -1.0217224275        1.9613872511
 O         -1.3814018919        0.8326697226       -0.8323571259
 S          2.4534731804        0.1336487519       -0.7642474445
 H          0.1831013780        0.8113952709       -2.1159211997
 H          3.0480021269       -0.1942944175        0.3970971057
