    8
 DF-KS-SCF000/VTZ,I=VTZ-PP  ENERGY=-897.38537718
 C         -1.3077057528       -0.5854073976       -0.7521914800
 N         -0.3554823692       -0.5398293485        0.1214651931
 S          0.0198870631       -1.6788922837        1.3192615175
 N          2.9241617584        1.6965422912        1.5927981335
 N          2.0577537544        1.3328196504        1.0385594232
 I         -1.6127610134        0.9283894279       -2.1589246640
 H         -1.9788743945       -1.4310242622       -0.7680100722
 H          0.2530209639        0.2774019125        0.0985479489
