    8
 DF-KS-SCF000/VTZ,I=VTZ-PP  ENERGY=-3175.76581006
 C         -1.3452118874       -0.9512099444       -0.0137195018
 N         -0.5828421326        0.0250032316       -0.3795447089
 S         -0.9415102777        1.3022987512       -1.4352560235
 N          3.2460249198        1.7679034810        0.0220817800
 N          2.3656311011        1.1281218287        0.0959909619
 Br        -0.7459689110       -2.2758060759        1.1784241992
 H         -2.3540120070       -1.0318299494       -0.3862243939
 H          0.3578891948        0.0355186771        0.0133179169
