    9
 DF-KS-SCF000/VTZ,I=VTZ-PP  ENERGY=-735.48875662
 C         -0.3775516736        0.8158145920        0.0811628956
 C         -1.2396222666       -0.4144663808        0.3157631099
 S         -0.6955106720       -1.8702651034        0.7918171515
 N          3.7756961447       -0.3604632218       -1.1007675107
 N          4.2614802267        0.2807185869       -0.3626971120
 O          0.8132358646        0.8293657899        0.2042462541
 O         -2.5180983082       -0.0994866727        0.0678768960
 H         -0.9587853871        1.7078531450       -0.2171833706
 H         -3.0608439385       -0.8890707251        0.2197816961
