   12
 DF-KS-SCF000/VTZ,I=VTZ-PP  ENERGY=-720.50467638
 C         -0.5629796949       -1.1056026429        0.2657106887
 C          0.1292239193       -0.4242804462       -0.9303066134
 N          1.3097332261       -0.2921903336       -0.0873682271
 C          0.3347676224       -0.0715554705        0.9721348689
 S         -0.5105745441        1.2874313405       -0.1833949287
 O         -1.9419930166        1.5450706134       -0.0763412200
 O          0.3781529253        2.4081068449       -0.4872380998
 H         -1.6401999444       -1.0306608882        0.3679089633
 H         -0.1942717628       -2.1178701353        0.4136828189
 H          0.1632898506       -0.7084970184       -1.9758460419
 H          1.9397779463        0.4778415572       -0.2982862648
 H          0.5950734729        0.0322065992        2.0193440660
