    8
 DF-KS-SCF000/VTZ,I=VTZ-PP,SN=VTZ-PP  ENERGY=-738.86343040
 C         -1.6370418579        0.2771421505        0.2715852147
 N         -0.4352091088       -0.2039457842        0.1605943178
 O         -0.0955179624       -1.4189657101        0.2047196937
 N          3.5870861217       -0.6311009279       -0.3091433178
 N          2.6366174558       -0.1020186399       -0.2266269324
 Cl        -1.9002041708        1.9772283018        0.1838088813
 H         -2.4759529414       -0.3811282816        0.4186308189
 H          0.3202224641        0.4827888815        0.0207910538
