   12
 DF-KS-SCF000/VTZ,I=VTZ-PP  ENERGY=-393.79898240
 C         -1.5922523661       -0.9186847416       -0.4628242558
 O         -1.7299005623        0.4038396899       -0.9718337115
 C         -0.6473066978        1.2033592630       -0.9859844748
 N          0.5393276598        0.8831782912       -0.5684720565
 O          1.5825386245        1.6365706048       -0.5765795222
 N          3.8835202165       -0.7693279292        0.9188359654
 N          2.8276710331       -0.7916861546        0.6447180540
 H         -0.8709152681       -1.4940682939       -1.0504295280
 H         -1.2869560378       -0.9072582889        0.5875855655
 H         -2.5731196580       -1.3767537454       -0.5477488450
 H         -0.8096619076        2.1915678525       -1.3835826141
 H          0.6770549640       -0.0607365478       -0.1932754770
