    8
 DF-KS-SCF000/VTZ,I=VTZ-PP  ENERGY=-391.49731972
 C         -1.1645266444       -0.7617297252       -0.6604214581
 N         -0.1414700464       -1.7279493771       -0.6392132757
 C          1.0383571030       -1.6358861455       -0.3483523886
 O          2.1668988496       -1.6783344520       -0.0990073712
 N          1.1050354944        3.1037789594        0.3377742703
 N          0.1399465671        3.5126282356        0.6573515096
 O         -1.0290410259        0.3945438901       -0.3784850792
 H         -2.1152003075       -1.2070513753       -0.9720554870
