    9
 DF-KS-SCF000/VTZ,I=VTZ-PP  ENERGY=-1381.35139892
 C          0.1152452693        1.4089131223       -0.0685147228
 C          1.0634439453        0.2793338874       -0.2330054107
 S          0.6698566345       -1.3059721596       -0.2327598013
 N         -3.2691313127       -2.7793130137        0.4530822860
 N         -3.6898906013       -1.9570223624        1.0355840004
 S         -1.4921564515        1.3129633821        0.0863375547
 S          2.7015202292        0.9227521544       -0.4276936890
 H          0.5921476534        2.3898931648       -0.0588324152
 H          3.3089646238       -0.2715481752       -0.5541978021
