10
b3lypvtz=-118768.65500823
C       1.43734774     -0.45435926      0.01470424
N       0.50847100      0.65342851     -0.03813540
C      -0.84924838      0.48710200      0.01005548
N      -1.52844030     -0.59056290      0.00498344
H       2.45371366     -0.06837929     -0.02252896
H       1.32484621     -1.04574264      0.92961880
H       1.29940025     -1.12221264     -0.83926994
H       0.86609782      1.57894537      0.11443170
H      -1.38508663      1.43630141      0.03900445
H      -0.93608738     -1.41960856     -0.01977080
