9
b3lypvtz=-107902.05059499
C      -1.11125085      0.12772827     -0.05636691
C       0.25898274     -0.34386246      0.35318667
C       1.48608688      0.22642095     -0.16194341
N       1.22919853     -0.84951792     -0.74267214
H      -1.79878388     -0.71492758     -0.15860966
H      -1.52849127      0.80672629      0.69177385
H      -1.07600011      0.65463490     -1.01022939
H       0.30240683     -0.91168899      1.27810543
H       2.23785115      1.00448653     -0.19324444
