10
b3lypvtz=-118744.89871065
N      -1.48127523     -0.16829718     -0.10950047
C      -0.19483265      0.00501175      0.49042794
C       0.98772126     -0.65048318     -0.08939387
N       0.88579208      0.82892343     -0.09553414
H      -2.06153176      0.65335829      0.00879214
H      -1.41992636     -0.37707712     -1.09833000
H      -0.25759691      0.10432462      1.56744151
H       1.76607806     -1.05846365      0.54324768
H       0.84851325     -1.18407888     -1.02399958
H       0.60459326      1.14483991     -1.01928420
