10
b3lypvtz=-121110.18176695428
C       1.25903206      0.24971430     -0.02552632
C      -0.00031682     -0.38064914      0.52550532
O      -1.02793278     -0.39834117     -0.51315275
C      -2.05207652      0.37347872     -0.33355548
H       2.04962637      0.20749578      0.72515753
H       1.08525651      1.29490467     -0.28267959
H       1.60444679     -0.27691314     -0.91539630
H      -0.41292977      0.16948505      1.36994187
H       0.15426437     -1.42524932      0.79456245
H      -2.65937021      0.18607425     -1.25033660
