12
b3lypvtz=-98627.80782836
C      -0.00000791      1.45427840     -0.00000721
C      -0.00000069      0.12385150     -0.00000417
C      -1.27299838     -0.67696463     -0.00000178
C       1.27300575     -0.67695088     -0.00000191
H       0.92227611      2.02145565     -0.00001145
H      -0.92229812      2.02144560     -0.00001085
H      -2.15466628     -0.03719399     -0.00000313
H      -1.32270173     -1.33004877      0.87653884
H      -1.32270183     -1.33005252     -0.87653962
H       1.32271871     -1.33003009      0.87654185
H       1.32271367     -1.33004259     -0.87653661
H       2.15466671     -0.03717069     -0.00000897
