10
b3lypvtz=-121157.10431497
C       1.45223049      0.56403459     -0.00000331
C       0.74284898     -0.56244376      0.00000150
O      -0.60257795     -0.70856417      0.00000462
C      -1.38222061      0.47827919      0.00000312
H       2.52960098      0.49932768     -0.00000529
H       1.01170967      1.54921153     -0.00000546
H       1.21775839     -1.53552408      0.00000341
H      -1.18158498      1.08006344     -0.89063478
H      -1.18158012      1.08006887      0.89063625
H      -2.42181585      0.16137372      0.00000694
