9
b3lypvtz=-131213.706604
C      -1.83833273     -0.09532865     -0.00000080
C      -0.42157408      0.37132866     -0.00000139
N       0.52793455     -0.46873003      0.00000105
O       1.78177426      0.17166797     -0.00000153
H      -1.88232200     -1.18274223      0.00000223
H      -2.36844411      0.28150345     -0.87838885
H      -2.36844467      0.28150839      0.87838479
H      -0.20719215      1.44035477     -0.00000420
H       2.39569792     -0.56927033      0.00000071
