10
b3lypvtz=-121170.05706433
C       0.98198409      1.03543654      0.00000059
C       0.08288841      0.05223266     -0.00000088
C      -1.39993445      0.23469818     -0.00000027
O       0.40675874     -1.27834476     -0.00000341
H       2.04654305      0.83655381     -0.00000025
H       0.66747412      2.06720655      0.00000249
H      -1.83878452     -0.24237017     -0.87894037
H      -1.83878482     -0.24237903      0.87893485
H      -1.66417589      1.28941150      0.00000499
H       1.36591130     -1.37126429     -0.00000474
