8
b3lypvtz=-141276.93090011
N       0.88175359     -0.08219329      0.29943059
C       0.36705380      0.99360342     -0.08211951
O       0.96356448      2.16270736     -0.49463560
N       2.40383411      2.08098267     -0.46345899
H       1.90010743     -0.01585156      0.27795748
H      -0.70796676      1.14514832     -0.13788449
H       2.66965743      2.32584307     -1.41332983
H       2.66729592      2.86886001      0.12194035
