10
b3lypvtz=-118763.71079834
N      -1.42723525     -0.54173498     -0.06616648
C      -0.66713540      0.64842968     -0.01476478
C       0.66713821      0.64842794      0.01476386
N       1.42723859     -0.54173483      0.06616557
H      -1.05922600     -1.25902091      0.54790356
H      -2.40264722     -0.39505722      0.14364415
H      -1.21284967      1.57965959     -0.05319284
H       1.21285400      1.57965603      0.05320745
H       1.05919155     -1.25904294     -0.54785555
H       2.40263820     -0.39506635     -0.14370795
