8
b3lypvtz=-143699.17494292
O       1.78185719      0.46583348      0.12344737
C       0.50559335      0.26168703     -0.34316793
C      -0.50559335     -0.26168703      0.34316793
O      -1.78185719     -0.46583348     -0.12344737
H       1.84253841      0.16981206      1.03809028
H       0.40547419      0.58541709     -1.37165142
H      -0.40547419     -0.58541709      1.37165142
H      -1.84253841     -0.16981206     -1.03809028
