10
b3lypvtz=-118725.05785882175
C      -0.30899843     -0.81272881     -0.13591771
N      -1.16325959      0.26022099      0.40590061
H      -0.75689010      0.60233970      1.28969652
H      -1.08242811      1.09341885     -0.19618645
H      -2.13292964     -0.01199484      0.52832635
C       0.98182656     -0.34440938     -0.26420007
N       1.25834110      0.89909652      0.08614099
H      -0.76228683     -1.75941265     -0.34909661
H       1.72853306     -1.03881764     -0.65748741
H       2.23809197      1.11228725     -0.05837373
