11
b3lypvtz=-131997.82260072487
C      -0.20118278      0.67334608      0.11172144
C       1.10415210     -0.11140102      0.04998110
O       1.13074271     -0.96566741     -1.07762712
N      -1.32322767     -0.27556169      0.08193979
H      -0.27395311      1.30120089     -0.77806762
H      -0.19752617      1.33472570      0.98790767
H       1.23014073     -0.68609671      0.98030310
H       1.95241641      0.57056958     -0.03044738
H       0.23503712     -1.32760757     -1.13927856
H      -1.46937828     -0.69365349      0.99335824
H      -2.18722110      0.18014565     -0.17979066
