7
b3lypvtz=-153752.19852659
O      -1.13475591     -0.33312182      0.57603956
C      -0.43703884      0.28824866     -0.40221596
N       0.82371563      0.26478617     -0.52144540
O       1.43858717     -0.49251911      0.49263022
H      -2.07434464     -0.16826082      0.45282086
H      -0.98518690      0.85260629     -1.14731000
H       2.36902349     -0.41163938      0.26308072
