9
b3lypvtz=-131199.42346554
C      -1.00108738     -0.31908351      0.85483002
C      -0.30897278      0.62216400      0.22075186
N       0.69312315      0.43897036     -0.73939121
O       1.24775938     -0.87241548     -0.73197958
H      -0.78422412     -1.36806156      0.72481662
H      -1.80196920     -0.03761928      1.52108740
H      -0.52542312      1.67643494      0.35948430
H       1.46916698      1.07793585     -0.60991541
H       1.01162708     -1.21832532     -1.59958399
