7
b3lypvtz=-130466.87858819
C      -1.50311757      0.34372044      0.00000995
O      -0.41302277     -0.62328950      0.00007762
C       0.77305652     -0.12325883     -0.00001062
N       1.85403811      0.28642073     -0.00007605
H      -2.41015596     -0.25094022      0.00011282
H      -1.44551148      0.95939079     -0.89552888
H      -1.44544186      0.95959459      0.89540418
