10
b3lypvtz=-118742.89246246
C      -1.42685104      0.50826764     -0.00322806
N      -0.81059265     -0.60960490      0.04009655
N       0.53063526     -0.66067641     -0.11231781
C       1.37374814      0.50746036      0.03534764
H      -0.95032022      1.47719087     -0.13411669
H      -2.50469767      0.47634075      0.08159358
H       0.89511198     -1.52221980      0.25560932
H       1.16382428      1.06337496      0.95914229
H       1.24611468      1.19134271     -0.80697518
H       2.41156724      0.17972581      0.04705634
