7
b3lypvtz=-158784.23634256
C      -1.01039971     -0.32236409     -0.12944336
C       0.19112834      0.18706405      0.07593451
O       1.36532304     -0.41438642     -0.17260967
F       0.36701218      1.42468446      0.58135472
H      -1.88604418      0.25646423      0.10928537
H      -1.10823386     -1.31533369     -0.53511263
H       2.08121419      0.18387147      0.07059106
