10
b3lypvtz=-118768.37895427
C      -1.43740273     -0.43182965     -0.00273255
N      -0.61690263      0.76760713      0.01123258
C       0.64395482      0.62139053      0.00697837
N       1.36768462     -0.55075979     -0.05086091
H      -1.27766835     -1.03295760     -0.90736026
H      -1.24844694     -1.08301643      0.86300804
H      -2.48854621     -0.14991297      0.02670484
H       1.26937858      1.51277242      0.00578102
H       0.90627781     -1.41776414      0.16637967
H       2.34145003     -0.51279249      0.19539219
