8
b3lypvtz=-141343.4495587
C      -0.06460406      0.47263691      0.17044780
O      -0.21947722      1.60593345      0.57912261
N       1.14289941      0.00641773     -0.32196936
N      -1.07967932     -0.46930430      0.15505925
H       1.91706582      0.61700555     -0.11845035
H       1.34522591     -0.97532778     -0.22480048
H      -1.99145585     -0.07316476      0.31422920
H      -1.04997469     -1.18419680     -0.55363866
