7
b3lypvtz=-128031.6139246
C       1.62711696      0.13993958      0.00010755
N       0.53679963     -0.50910185     -0.00022521
N      -0.56430845      0.41112895     -0.00025564
N      -1.62876862     -0.20787104     -0.00047214
H       1.65698980      1.22990099     -0.00012151
H       2.55618026     -0.41897297      0.00064803
H      -2.36317459      0.51227035     -0.00071607
