8
b3lypvtz=-120374.86917122
C       1.87480262     -0.03745763      0.14680501
C       0.68614213     -0.19440913      0.10359359
C      -0.76518946     -0.35622987      0.02108880
O      -1.47983367      0.87125587      0.11411738
H       2.92678515      0.09509805      0.19702751
H      -1.11565303     -0.96921810      0.85270247
H      -1.01407025     -0.89172105     -0.90293428
H      -1.11308350      1.48278186     -0.53250048
