10
b3lypvtz=-97820.77271954
C       1.50592411     -0.00000058     -0.21045791
C       0.16137946      0.00000070      0.49172221
C      -1.05745374      0.64478478     -0.11215456
C      -1.05745433     -0.64478372     -0.11215320
H       2.09379598     -0.88084413      0.06156635
H       1.38066669     -0.00000481     -1.29477967
H       2.09379420      0.88084620      0.06155962
H       0.24623421      0.00000187      1.57950146
H      -1.54527244      1.56931439     -0.36518160
H      -1.54527413     -1.56931370     -0.36517771
