12
b3lypvtz=-121924.25320853
C      -1.85340023     -0.16682075     -0.00000136
C      -0.49525391      0.50466393      0.00000079
O       0.50751676     -0.49588314     -0.00000268
C       1.81467714      0.03197289     -0.00000207
H      -1.97012993     -0.79475839      0.88366898
H      -2.64742853      0.58157722      0.00000195
H      -1.97013067     -0.79475139     -0.88367657
H      -0.38182011      1.14779474      0.88456238
H      -0.38182024      1.14780067     -0.88455651
H       2.00303927      0.64698395      0.88974129
H       2.50682178     -0.80848754     -0.00000547
H       2.00303768      0.64698981     -0.88974172
