7
b3lypvtz=-128037.92941212353
C       0.18744514      0.46034691      0.05707964
N       1.31164510     -0.14573458     -0.04613319
N       2.30993904     -0.71812704     -0.14280207
N      -1.03852206     -0.21679262     -0.00732661
H       0.20081770      1.52720093      0.19769160
H      -1.08354152     -1.20663516     -0.14201424
H      -1.88778341      0.29974157      0.08350487
