11
b3lypvtz=-108698.85783904
C       0.84665961      1.17465380      0.01244139
C       0.08892578      0.07272928      0.00371496
C      -1.41262448      0.11702685     -0.00058002
N       0.61178737     -1.22098709     -0.07659591
H       0.39595781      2.15472532     -0.01044105
H       1.92807986      1.12283511      0.01615201
H      -1.80997396     -0.37756236     -0.89042738
H      -1.82000786     -0.40695413      0.87007521
H      -1.77505880      1.14200963      0.02141307
H       1.59395381     -1.29793717      0.14011344
H       0.07007486     -1.93026122      0.39359627
