10
b3lypvtz=-142074.6693996
N      -1.21679721      0.64387692     -0.05814962
C       0.01280033     -0.00078770      0.35663611
N       1.21051707      0.67242984     -0.08221716
O       0.00141728     -1.33513561     -0.14169957
H      -1.25500845      1.58556900      0.31497068
H      -1.23684232      0.71695842     -1.07108576
H       0.02996744     -0.00624097      1.45234816
H       2.02768225      0.21843817      0.31207564
H       1.29041987      0.59519603     -1.09217531
H      -0.87817925     -1.69223011      0.02924882
