8
b3lypvtz=-120360.43219881
C      -0.98183873     -0.58659628     -0.01609762
C      -0.82363797      0.69657089     -0.11535070
C       0.36336713     -0.08760644      0.31794168
O       1.40563715     -0.36687508     -0.60160929
H      -1.60430921     -1.45418985     -0.14716580
H      -1.22698996      1.65558948     -0.38877409
H       0.71577316     -0.06209152      1.34825914
H       2.15199843      0.20519879     -0.39720333
