14
b3lypvtz=-99395.37353254
C      -1.91478854     -0.17193806      0.39069280
C      -0.53885413      0.47857359      0.25601012
C       0.53885414     -0.47857360     -0.25601014
C       1.91478853      0.17193802     -0.39069279
H      -2.26631110     -0.55410983     -0.57038375
H      -1.88709115     -1.01235104      1.08803082
H      -2.65907283      0.53719437      0.75678885
H      -0.60536335      1.33739755     -0.41958369
H      -0.22896599      0.88110577      1.22574730
H       0.22896603     -0.88110578     -1.22574734
H       0.60536337     -1.33739756      0.41958366
H       2.26631099      0.55410980      0.57038378
H       1.88709108      1.01235101     -1.08803080
H       2.65907296     -0.53719424     -0.75678880
