10
b3lypvtz=-147071.65892264
N       1.24087512     -0.43789320      0.45807931
C       0.23453325      0.48704331     -0.05828879
C      -1.12815611     -0.16517276     -0.16083649
F      -1.65442601     -0.43164158      1.09869060
H       1.49196355     -1.12529475     -0.24259817
H       2.08932598      0.05476725      0.70555156
H       0.46848016      0.90597932     -1.05001626
H       0.15500833      1.32991952      0.63093528
H      -1.07111958     -1.11423284     -0.70172580
H      -1.82648470      0.49642573     -0.67969122
