7
b3lypvtz=-130471.75352731
C      -1.37045448     -0.40914471      0.00021242
N      -0.67855400      0.65579593     -0.00165381
C       0.74942222      0.46874123     -0.00039593
O       1.33016232     -0.58218365     -0.00288728
H      -2.45431094     -0.32821690     -0.00115417
H      -0.92424120     -1.40632737      0.00351242
H       1.27725908      1.43231247      0.00290236
