10
b3lypvtz=-121151.41643105
C       1.50752046      0.10156282     -0.14797782
C       0.15203778     -0.03937372      0.48476559
C      -1.04066367      0.61584197     -0.05649060
O      -0.82695876     -0.78656981     -0.24794436
H       1.41517372      0.32644983     -1.21063240
H       2.07312916      0.90373023      0.33133169
H       2.07943126     -0.82219428     -0.04220946
H       0.15395295     -0.26319541      1.54931740
H      -0.95170815      1.22342494     -0.95215491
H      -1.86525674      0.87424144      0.60051187
