13
b3lypvtz=-109449.00111291
C       1.07118810     -0.88311060      0.05964094
N       0.00020257     -0.00019099     -0.36745208
C      -1.29985268     -0.48600051      0.05982240
C       0.22886527      1.36912258      0.05865947
H       1.15792614     -0.95521308      1.15906651
H       0.90193142     -1.88777408     -0.33039901
H       2.02518470     -0.52500415     -0.32986215
H      -1.40487154     -0.52595645      1.15932572
H      -1.46743383     -1.49083440     -0.33043677
H      -2.08505623      0.16375549     -0.32927853
H      -0.55853979      2.01553508     -0.33160764
H       0.24737470      1.48114154      1.15800676
H       1.18345818      1.72498758     -0.33145162
