8
b3lypvtz=-120405.70698852
C       1.75883083      0.14061080      0.00003688
C       0.56394071     -0.44622913     -0.00000346
C      -0.67408264      0.34937923      0.00001662
O      -1.78701574     -0.12093754      0.00000432
H       1.84792070      1.22127497      0.00003774
H       2.68048696     -0.42515899      0.00006996
H       0.44642984     -1.52344325     -0.00005001
H      -0.51698766      1.44864690      0.00007596
