10
b3lypvtz=-121181.81859362
C       1.28852786     -0.61402786      0.00000168
C       0.00000000      0.18260858     -0.00000158
C      -1.28852786     -0.61402786      0.00000122
O      -0.00000001      1.39197145     -0.00001798
H       1.33237427     -1.26418771     -0.87715303
H       1.33238136     -1.26417754      0.87716353
H       2.14142934      0.05981060     -0.00000615
H      -2.14142934      0.05981060     -0.00001412
H      -1.33237092     -1.26419386     -0.87714906
H      -1.33238471     -1.26417139      0.87716749
