11
b3lypvtz=-131935.28329973124
C       0.96351295      0.36468482     -0.02178597
C      -0.29290188      0.63816404      0.72103158
N      -1.25348188     -0.45091419      0.24012406
H      -1.26095214     -0.33621028     -0.77406310
H      -1.01052752     -1.44887676      0.42383387
H      -2.18988434     -0.27836318      0.58762961
O       0.68340073      0.52516205     -1.44146941
H       1.37896154     -0.66862005      0.09290177
H       1.73785839      1.06194360      0.31247094
H      -0.15296798      0.48647655      1.79330310
H       1.39698213      0.10655339     -1.93397645
