7
b3lypvtz=-151329.26127407
N      -1.32936337      0.10210572      0.08046893
N       0.01937487      0.32127361      0.20888247
N       0.65613420     -0.69091431      0.50181258
O       2.01511289     -0.44063258      0.53099976
H      -1.65049922     -0.72806138      0.57021991
H      -1.83121194      0.93802044      0.33859339
H       2.12045257      0.49820849      0.28929857
