8
b3lypvtz=-117977.61265606
C      -1.66374255      0.09941172     -0.00014708
N      -0.52988103     -0.46960896     -0.00034269
N       0.52988179      0.46960948      0.00033979
C       1.66374330     -0.09941122      0.00014526
H      -1.77061825      1.18358178     -0.00005687
H      -2.54781845     -0.52818582      0.00012094
H       1.77061898     -1.18358128      0.00005880
H       2.54781920      0.52818631     -0.00012016
