12
b3lypvtz=-119467.24586250771
C       0.68423194      0.67204066     -0.05728344
C      -0.81727496      0.71204008     -0.00759192
N      -1.21248739     -0.72257865     -0.37818984
H      -1.05197907     -1.04300652     -1.35260339
H      -2.17478493     -0.91736259     -0.12970314
H      -0.58365761     -1.27560059      0.22188201
N       1.14087679     -0.33194407      0.93652225
H       1.12903777      0.33643018     -1.02279945
H       1.06943800      1.68193839      0.12302244
H      -1.22368585      1.35965586     -0.78825108
H       0.89571933     -0.00119286      1.86382410
H       2.14456598     -0.47041989      0.90004399
