7
b3lypvtz=-130471.17433607
N       1.47130064     -0.49009103      0.00008176
C       0.74170666      0.54244490     -0.00004677
C      -0.76800519      0.49168748     -0.00017037
O      -1.37763860     -0.54700264     -0.00000036
H       0.87308121     -1.32478042      0.00002202
H       1.20366417      1.53039272     -0.00002688
H      -1.29026890      1.46729899      0.00015660
