7
b3lypvtz=-130448.14882973813
C      -0.97265213      0.30454469     -0.01968499
C       0.37818376     -0.12477985      0.12410673
N      -0.34901725     -1.12067468      0.30309477
O       1.64804397      0.25065856      0.09645217
H      -1.49075323      0.79406606      0.79781021
H      -1.41869957      0.41788273     -1.00179458
H       2.20489446     -0.52169751      0.27998013
