10
b3lypvtz=-97842.47826597
C       0.81130445     -0.66735460      0.00001746
C       0.81132136      0.66733388     -0.00001437
C      -0.69982590      0.78513360      0.00002589
C      -0.69984645     -0.78511575     -0.00002233
H       1.59715073     -1.41146849      0.00006171
H       1.59718648      1.41142642     -0.00005870
H      -1.14256539      1.24323371     -0.88664457
H      -1.14254990      1.24327395      0.88668471
H      -1.14258221     -1.24324496     -0.88668126
H      -1.14259717     -1.24320478      0.88664846
