10
b3lypvtz=-144478.67689385
C       1.40423943     -0.01223644     -0.08346890
C      -0.04464430     -0.00090036      0.35953831
O      -0.73278040      1.16851156     -0.03667599
O      -0.65266713     -1.16113132     -0.17193004
H       1.45731321     -0.02468051     -1.17438430
H       1.91530556      0.87494391      0.28765086
H       1.91176082     -0.90074992      0.29112700
H      -0.11886887      0.00719363      1.45130955
H      -0.66079494      1.24172302     -0.99620608
H      -1.57227339     -1.16707258      0.11546660
