7
b3lypvtz=-130423.41218665
C      -1.38760830     -0.47984708      0.00000099
C      -0.61537320      0.60059280      0.00001017
N       0.84121089      0.56138685     -0.00002777
O       1.32448613     -0.54591005      0.00002140
H      -2.46561528     -0.40272027      0.00001753
H      -0.94063131     -1.46578342     -0.00002314
H      -0.99313794      1.61319417      0.00002583
