11
b3lypvtz=-132003.88262914
C      -1.40833235     -0.17889125     -0.09226978
C       0.02898421      0.03298232      0.36455210
N       0.88280245     -1.01205457     -0.18320406
O       0.53844819      1.29195680     -0.04734372
H      -1.45074252     -0.23594672     -1.18184685
H      -1.82287897     -1.10251020      0.31848081
H      -2.02677835      0.65310474      0.24062722
H       0.05652206      0.08733765      1.45953564
H       0.47190938     -1.93018769     -0.06755962
H       1.78563604     -1.01304028      0.27644021
H       0.72773887      1.21101421     -0.99065295
