10
b3lypvtz=-144463.4309676
C      -1.47495034      0.42199367      0.08351048
O      -0.59506795     -0.60666857     -0.33024095
C       0.67746356     -0.54600485      0.25288468
O       1.47054514      0.52804372     -0.19912790
H      -1.15754474      1.40305821     -0.28451567
H      -1.55735877      0.45914339      1.17791746
H      -2.45346019      0.19578401     -0.33507813
H       1.18591316     -1.45659364     -0.05580762
H       0.58375351     -0.51619783      1.34840147
H       1.27109061      1.31480189      0.31594518
