8
b3lypvtz=-141327.44732666
C      -0.25448387     -0.00203186     -0.18350829
N      -0.86476608      1.10593173     -0.07069842
N       1.01348765     -0.26694418     -0.64899588
O      -0.88579900     -1.15935982      0.13742155
H      -0.29381264      1.89570548     -0.35195880
H       1.39494603     -1.16586409     -0.40406503
H       1.66852528      0.49434879     -0.62034179
H      -1.77809736     -0.90178605      0.40349923
