10
b3lypvtz=-118779.38990066
C      -1.35453465     -0.35538782     -0.00028201
C       0.07706579      0.12911648      0.00208849
N       0.46668026      1.34352132      0.00642127
N       1.01429302     -0.88294292     -0.05696259
H      -2.04606496      0.48357184      0.01935898
H      -1.55152495     -0.98427024      0.87165887
H      -1.55334754     -0.95648960     -0.88956539
H      -0.32663574      1.97653476     -0.01538093
H       0.76437963     -1.78234068      0.31658431
H       1.96241815     -0.59154214      0.12089100
