14
b3lypvtz=-99395.87845177
C       1.45325549     -0.12393043      0.09622145
C       0.00033393      0.00008966     -0.37091064
C      -0.61948885      1.32017382      0.09568220
C      -0.83383887     -1.19620957      0.09537093
H       2.05984193      0.70922733     -0.26436205
H       1.51078356     -0.12760375      1.18824751
H       1.90905570     -1.04905149     -0.26233509
H       0.00066111      0.00017146     -1.46659328
H      -0.04810542      2.17782654     -0.26503113
H      -0.64313259      1.37310702      1.18770043
H      -1.64520012      1.42684056     -0.26315143
H      -0.86776973     -1.24368409      1.18735048
H      -1.86228358     -1.12868679     -0.26505295
H      -0.41453658     -2.13807326     -0.26408145
