9
b3lypvtz=-131209.1377890985
C       0.09084443      0.16651115      0.68893564
N      -1.00544515      0.07807796     -0.30630609
H      -0.78153981      0.67117720     -1.11384153
H      -1.91369100      0.32366245      0.07576265
H      -1.02697539     -0.86649563     -0.70778174
C       1.27901531     -0.17831157      0.08892484
O       1.33751120     -0.50651592     -1.12637592
H      -0.16675768      0.46898521      1.68566281
H       2.18703808     -0.15709084      0.71501934
