11
b3lypvtz=-137009.49999957
C      -1.52691593     -0.48187431      0.12188793
C      -0.58976532      0.65578917     -0.28030861
C       0.80427559      0.51759238      0.29429029
F       1.41685671     -0.64308338     -0.19212293
H      -1.65519316     -0.52175281      1.20595526
H      -2.51312967     -0.35524247     -0.32592307
H      -1.13007685     -1.44357977     -0.20291715
H      -0.51234012      0.71579708     -1.36891260
H      -0.99110129      1.61649471      0.05761156
H       0.78221465      0.43656435      1.38440984
H       1.43921139      1.36012505      0.01262247
