10
b3lypvtz=-118725.46386372644
C       1.40810491      0.13846524     -0.10172511
C       0.13706231     -0.56934301      0.24303343
N      -0.99906674      0.07731685      0.34992737
N      -2.18118437     -0.41372560      0.64440865
H       1.37557602      0.62599262     -1.08236631
H       1.68832163      0.90011629      0.63434848
H       2.22491754     -0.58064584     -0.13575326
H       0.09145058     -1.63295273      0.41879082
H      -0.92033446      1.08139592      0.17736355
H      -2.82484743      0.37338026      0.63887941
