11
b3lypvtz=-108702.15149822
C      -1.18986838     -0.77640274      0.00000326
C      -0.00449875      0.15951059     -0.00000129
C       1.35119203     -0.49630597      0.00000303
N      -0.07393717      1.42810918     -0.00000731
H      -2.13200550     -0.22912050     -0.00001262
H      -1.16385737     -1.42889267     -0.87652838
H      -1.16387105     -1.42886452      0.87655640
H       1.46906624     -1.13785746      0.87735285
H       1.46906757     -1.13786639     -0.87734004
H       2.13225108      0.25958427     -0.00000021
H      -1.04701570      1.73832122     -0.00000969
