8
b3lypvtz=-143738.8175339
C      -1.39443440     -0.10964066     -0.00000441
C       0.08971944      0.12645859     -0.00001670
O       0.63658285      1.19816747      0.00000271
O       0.77924969     -1.04211102      0.00000211
H      -1.91423291      0.84309727     -0.00004664
H      -1.67712367     -0.69068644      0.87828068
H      -1.67714357     -0.69078184     -0.87821916
H       1.71960658     -0.80913338      0.00001742
