8
b3lypvtz=-143711.31319125
C       1.13734535     -0.01506241      0.03333052
C      -0.18686946     -0.14088365     -0.01983656
O      -0.81448196     -1.32693537     -0.15776959
O      -1.09751731      0.87127482      0.05351759
H       1.76462172     -0.88784470     -0.03456938
H       1.59685324      0.95448214      0.14420883
H      -1.76491758     -1.16485300     -0.17077043
H      -0.63513401      1.70992217      0.15188901
