9
b3lypvtz=-136236.35962673
C       1.80408447      0.08280034     -0.21203257
C       0.64691035     -0.37012509      0.25020722
C      -0.60196590      0.44320674      0.30538661
F      -1.64137647     -0.22116703     -0.35684565
H       1.90206679      1.08676659     -0.60835894
H       2.69707850     -0.52787995     -0.20648786
H       0.56622832     -1.38102923      0.63650982
H      -0.93226531      0.59274400      1.33716165
H      -0.46657874      1.41602863     -0.17074828
