7
b3lypvtz=-130466.93371489
N      -1.75577886     -0.16792349      0.07511251
C      -0.55339206      0.61011608      0.20255311
C       0.61925154      0.12948212     -0.15598380
O       1.63996203     -0.32418824     -0.48205619
H      -1.74872230     -1.00561704      0.64097619
H      -1.96952631     -0.41492488     -0.88158797
H      -0.59829404      1.61506245      0.60047716
