9
b3lypvtz=-159542.75005315
O      -1.54138104     -0.26768494      0.41257517
C      -0.45938199      0.45658678     -0.15819697
C       0.86982703     -0.20296395      0.17148287
F       1.90794265      0.54691123     -0.37908863
H      -1.66833313     -1.08133621     -0.08455048
H      -0.56130711      0.56264420     -1.24330100
H      -0.48934565      1.45470929      0.27866715
H       1.01741880     -0.25757513      1.25118080
H       0.92456044     -1.21139127     -0.24876891
