7
b3lypvtz=-130477.48261351
C      -0.28504341     -0.38336293      0.03045282
C       1.14403970     -0.03266857     -0.01075460
N       2.25395221      0.26885548     -0.02519124
O      -1.11769114      0.62855826     -0.49772792
H      -0.44468423     -1.27080481     -0.58190412
H      -0.54373346     -0.64215666      1.06285415
H      -1.00683967      1.43157925      0.02227090
