13
b3lypvtz=-109393.06396459341
C       1.31422073      0.69159329      0.12148665
C       0.47973368     -0.24556204     -0.72677066
N      -0.67538705     -0.84080975      0.07165994
H      -0.28934162     -1.33080685      0.87559179
H      -1.10318770     -1.56498049     -0.49805381
C      -1.83169472      0.00423680      0.60199128
H       0.68985692      1.47591880      0.54795090
H       1.80957058      0.15768053      0.93609019
H       2.08759561      1.15905827     -0.48756246
H       1.08345279     -1.06842730     -1.12273714
H       0.01317679      0.27999279     -1.55843131
H      -2.20794027      0.53692692     -0.28074417
H      -1.37005575      0.74517900      1.26300061
