9
b3lypvtz=-128791.28073404885
C      -0.87874756     -0.49981099      0.06600666
N       0.46259225      0.13370084     -0.04630918
N       0.61487507      1.40773721      0.04841211
N       1.39741299     -0.71557519     -0.24007120
H      -1.63166727      0.26411544      0.23021503
H      -0.85015348     -1.19967787      0.89575240
H      -1.07143045     -1.04150334     -0.85516789
H      -0.30215828      1.81876033      0.20076439
H       2.25927672     -0.16774642     -0.29960231
