8
b3lypvtz=-117977.09982395
N      -1.57365441     -0.03817564      0.01637941
C      -0.32196893      0.02127977     -0.04576451
C       0.98142858      0.68167134      0.02486422
N       0.76772228     -0.80834669     -0.12414732
H      -1.97664428      0.89640897      0.04877579
H       1.44453876      1.14878065     -0.83521961
H       1.29009412      1.07201917      0.98932584
H       0.97014389     -1.39609057      0.67692019
