9
b3lypvtz=-131255.59651349
C      -1.44950019     -0.43581241     -0.00000783
N      -0.47423782      0.63975552     -0.00000421
C       0.86657325      0.43018835      0.00002131
O       1.41224162     -0.65312459      0.00006345
H      -0.90352989     -1.37539598      0.00034303
H      -2.08309280     -0.39325755      0.88769677
H      -2.08265990     -0.39368493     -0.88804546
H      -0.79558940      1.59277348     -0.00008170
H       1.43054113      1.38022411     -0.00000436
