8
b3lypvtz=-117995.73914573
C       1.67763062      0.06997523     -0.00003869
N       0.53790682     -0.48536576     -0.00000685
C      -0.58654699      0.37183654      0.00000269
N      -1.78164693     -0.03332332      0.00000588
H       2.57203984     -0.54658366      0.00007397
H       1.81640061      1.15717259      0.00007805
H      -0.38670898      1.44920563     -0.00003300
H      -1.79357000     -1.05606225      0.00002195
