10
b3lypvtz=-118750.68706511
C      -1.44251601     -0.49217679     -0.01107463
C      -0.54272045      0.70932222      0.01829157
N       0.73232908      0.69286241      0.00526597
N       1.36440839     -0.52641107     -0.08285188
H      -2.48818524     -0.19603203     -0.06474434
H      -1.21756776     -1.12711719     -0.87337445
H      -1.32196971     -1.11327083      0.88434547
H      -0.98910729      1.69725992      0.03903394
H       0.88864380     -1.30385119      0.36463620
H       2.31419620     -0.43835646      0.24299614
