10
b3lypvtz=-97854.20337461
C      -1.28007447      0.83937517      0.47604784
C      -0.89744767     -0.30066674     -0.09744125
C       0.47741289     -0.80345813     -0.17791380
C       1.57706117     -0.05840355     -0.28130033
H      -2.31716542      1.14632926      0.47845066
H      -0.57339452      1.49320594      0.97176278
H      -1.65817582     -0.94390074     -0.53024495
H       0.58239056     -1.88454520     -0.17500119
H       1.53004149      1.02158541     -0.34506434
H       2.55935179     -0.50942142     -0.31919543
