11
b3lypvtz=-131990.24357895
C      -1.43347707     -0.40268893      0.02339214
N      -0.01504065     -0.59788960      0.29752280
C       0.77052499      0.60645020      0.09675785
O       2.10502153      0.45303113      0.52905697
H      -1.95951232     -1.34950822      0.14115635
H      -1.65476017     -0.01195213     -0.98264909
H      -1.85033463      0.29914613      0.74877437
H       0.34810824     -1.34397258     -0.28542291
H       0.75110271      0.95748018     -0.95083429
H       0.33239996      1.39211035      0.71529092
H       2.60596740     -0.00220652     -0.15342255
