9
b3lypvtz=-107922.4533439
C      -1.77802406     -0.12078670      0.00003080
C      -0.54248224      0.37260388     -0.00004618
N       0.57593336     -0.46782855     -0.00016785
C       1.72569323      0.06870796     -0.00026475
H      -2.63978955      0.53109347      0.00003895
H      -1.94040042     -1.18990038      0.00006761
H      -0.36793314      1.45078617     -0.00003734
H       2.60872352     -0.56371965      0.00002693
H       1.88295331      1.15396780      0.00009984
