10
b3lypvtz=-97826.51715462
C      -1.13479047      0.00000008      0.31497361
C      -0.00000059      0.74248483     -0.31642972
C       1.13479087      0.00000065      0.31497140
C      -0.00000023     -0.74248486     -0.31642885
H      -1.23321925      0.00000068      1.39952079
H      -2.07894415     -0.00000044     -0.21817914
H      -0.00000160      1.42769952     -1.14583444
H       1.23322176      0.00000131      1.39951840
H       2.07894352      0.00000060     -0.21818316
H      -0.00000085     -1.42770038     -1.14583288
