9
b3lypvtz=-154548.50965538
N       1.35313890      0.06624157     -0.09025565
C      -0.00431812     -0.00897325      0.35293650
O      -0.74172237      1.09649022     -0.12407199
O      -0.64314565     -1.16205626     -0.14064769
H       1.92760724     -0.61446612      0.39094518
H       1.39189208     -0.13151181     -1.08504936
H      -0.00388699     -0.02032662      1.45189657
H      -0.20169847      1.88098558      0.02086741
H      -1.59456063     -1.04086932     -0.04146697
