9
b3lypvtz=-107928.24566422
C      -1.79349405      0.10971573     -0.00001074
C      -0.57012446     -0.41674355     -0.00000321
C       0.64779479      0.39557016      0.00001507
N       1.84978518     -0.02011667     -0.00001799
H      -2.68162265     -0.50712558      0.00003105
H      -1.94242632      1.18298635     -0.00005426
H      -0.43536359     -1.49471206     -0.00001440
H       0.49240022      1.47721880     -0.00001028
H       1.87867190     -1.04291719     -0.00001624
