10
b3lypvtz=-121152.30470836
C      -0.55564390      0.79496484     -0.04366836
C      -0.79597290     -0.70038578     -0.08017857
C       0.52514456     -0.16877414      0.35741833
O       1.60135546     -0.40129925     -0.51375758
H      -1.04038320      1.38287983      0.72381565
H      -0.43577608      1.29253386     -0.99606789
H      -1.44778834     -1.14387142      0.65923124
H      -0.82120694     -1.16847480     -1.05396786
H       0.77206148     -0.24003173      1.41261000
H       2.19820984      0.35245860     -0.46543498
