10
b3lypvtz=-97842.29724204
C      -1.95648517     -0.25983457     -0.00002756
C      -0.83192797      0.15881006      0.00004560
C       0.54387721      0.64506196      0.00001195
C       1.58454323     -0.48482538     -0.00000117
H      -2.95288986     -0.62454434      0.00007512
H       0.69372035      1.28478467     -0.87417848
H       0.69376489      1.28480320      0.87418139
H       1.47222198     -1.11556585     -0.88155082
H       2.59326022     -0.07022117     -0.00003157
H       1.47226713     -1.11554458      0.88156954
