9
b3lypvtz=-131237.60431085
N       1.67508043      0.31388183      0.06734610
C       0.49609674     -0.53299118     -0.07917492
C      -0.75828237      0.30964114     -0.20448690
O      -1.84745192     -0.03518794      0.17245845
H       1.77063742      0.64476175      1.01925436
H       2.52068168     -0.19153689     -0.15912754
H       0.33407301     -1.27840390      0.70774631
H       0.58118771     -1.07979291     -1.02492760
H      -0.59054269      1.29229109     -0.69215426
