12
b3lypvtz=-119520.86019038
C      -1.84584992      0.08108546     -0.02653587
N      -0.50939590     -0.49233730     -0.03945229
C       0.55438764      0.49151321      0.01604848
N       1.82791394     -0.21348649      0.04007044
H      -2.00161829      0.67205109     -0.93205773
H      -2.04896691      0.73671648      0.83558596
H      -2.58629171     -0.71887238     -0.02553221
H      -0.38509118     -1.14080488      0.72917689
H       0.51353021      1.12581727      0.91791133
H       0.41968819      1.16105699     -0.84676412
H       1.97682625     -0.68949134     -0.84206864
H       2.59585168      0.43039389      0.18219377
