9
b3lypvtz=-131191.81060844957
C      -1.60467445     -0.24840729     -0.25096937
N      -0.26244510     -0.39039493     -0.17984447
C       0.74957355      0.44545689     -0.12406797
O       2.00966215     -0.12830112     -0.05847802
H      -2.19437372     -1.14313146     -0.28434948
H      -2.03231217      0.73751221     -0.27153908
H       0.05168924     -1.35579228     -0.16533543
H       0.61688442      1.51296512     -0.12858668
H       2.66599607      0.57009286     -0.02171642
