6
b3lypvtz=-145551.64209026
N       1.90100056     -0.24270598      0.00000007
C       0.80322220      0.09755735      0.00000041
C      -0.58538851      0.56396803      0.00000452
F      -1.45804436     -0.50598880     -0.00001402
H      -0.76743478      1.16818891      0.89044414
H      -0.76743111      1.16821649     -0.89041711
