10
b3lypvtz=-144467.53868227
C      -0.72278835     -0.32836446     -0.38054606
C       0.49980819     -0.37214432      0.51867966
O       1.31456667      0.78891368      0.32909726
O      -1.48461428      0.84622437     -0.16426995
H      -1.37337887     -1.17987190     -0.17031905
H      -0.40788226     -0.40424030     -1.43256070
H       0.19142633     -0.34318484      1.56397338
H       1.07011011     -1.29260534      0.35152487
H       1.76698141      0.71139701     -0.51701206
H      -0.85422894      1.57387611     -0.09856735
