10
b3lypvtz=-121159.44095945
C      -1.24208183     -0.66188861      0.12558912
C      -0.61970093      0.45275661     -0.23293712
C       0.86096395      0.59444993     -0.43931896
O       1.59680621     -0.61165414     -0.33159230
H      -2.31596249     -0.69302615      0.24949175
H      -0.69460932     -1.57468620      0.32216954
H      -1.19163117      1.36037651     -0.40597729
H       1.27345039      1.26371007      0.32131932
H       1.04274263      1.08338039     -1.40689598
H       1.29012255     -1.21331842     -1.01784807
