9
b3lypvtz=-131253.23051412
C      -1.39876564     -0.06244214     -0.00002842
C       0.09371128      0.09248228      0.00000834
N       0.79106758      1.14842249      0.00012946
O       0.71156250     -1.11454440     -0.00017211
H      -1.89277375      0.90597972      0.00073754
H      -1.71352958     -0.62868530      0.87768042
H      -1.71359960     -0.62730218     -0.87860815
H       0.20968055      1.98003939      0.00025433
H       1.66248465     -0.93226585     -0.00020541
