8
b3lypvtz=-143723.14113615
C       1.36802030     -0.40576457     -0.00000396
O       0.47564539      0.72575470     -0.00001131
C      -0.83140735      0.43501065      0.00000261
O      -1.30804269     -0.66556953      0.00002014
H       2.36970778      0.01235371     -0.00004320
H       1.20648245     -1.01615933     -0.88689714
H       1.20653155     -1.01610782      0.88693387
H      -1.40553542      1.37039919     -0.00000501
