11
b3lypvtz=-131994.95584252
N      -1.67035012      0.32497993     -0.30010483
C      -0.27124948      0.62555249     -0.00364206
C       0.64577388     -0.59272516      0.12121992
O       1.98577228     -0.25021573      0.45762921
H      -1.75227577     -0.20542031     -1.15988766
H      -2.07967059     -0.24012740      0.43478356
H      -0.22518991      1.19771639      0.92525861
H       0.11003331      1.28349657     -0.79170558
H       0.29406132     -1.23731607      0.92960123
H       0.60648508     -1.18174500     -0.80555799
H       2.35661002      0.27580429     -0.25759441
