12
b3lypvtz=-119524.21954352
N      -1.87132085      0.30183033      0.35030798
C      -0.43954462      0.58193959      0.24130302
C       0.43954462     -0.58193959     -0.24130302
N       1.87132085     -0.30183033     -0.35030798
H      -2.24690952      0.01401305     -0.54631852
H      -2.03590441     -0.46514132      0.99258119
H      -0.08363314      0.91635138      1.22081131
H      -0.31049134      1.43193172     -0.43606297
H       0.31049134     -1.43193172      0.43606297
H       0.08363314     -0.91635138     -1.22081131
H       2.03590441      0.46514132     -0.99258119
H       2.24690952     -0.01401305      0.54631852
