6
b3lypvtz=-140521.23118673
C       0.85033119      0.16206372     -0.63964768
O       1.91719794     -0.30397823     -0.88513364
N      -0.18613651     -0.62391672      0.04286099
N      -1.19844886      0.07577497      0.18354488
H       0.52289336      1.19009899     -0.88150870
H      -1.90583713     -0.50004272      0.66351879
