6
b3lypvtz=-138083.68115874
N      -1.59400053     -0.24834449     -0.00015338
N      -0.58954574      0.45565232     -0.00019603
N       0.58954606     -0.45565257      0.00016822
N       1.59400089      0.24834417      0.00009885
H      -2.39324070      0.40083621      0.00010306
H       2.39324101     -0.40083663     -0.00015672
