11
b3lypvtz=-108676.96595995
C       0.00000000      1.07967915      0.07153507
C      -1.05377951     -0.03942347     -0.09076778
N       0.00000000     -1.03261156      0.23285754
C       1.05377951     -0.03942347     -0.09076778
H      -0.00000000      1.88012838     -0.66444936
H       0.00000000      1.50705722      1.07232275
H      -1.42919557     -0.10220120     -1.11910840
H      -1.90429922     -0.04087647      0.59299978
H      -0.00000000     -1.87008593     -0.33602522
H       1.42919557     -0.10220120     -1.11910840
H       1.90429922     -0.04087647      0.59299978
