9
b3lypvtz=-128825.10156196
N      -1.20490023     -0.44806055      0.12162722
C      -0.43308435      0.61836400      0.55228287
N       0.79267187      0.81589764      0.26395168
N       1.32639271     -0.14529694     -0.63528906
H      -2.20040228     -0.32187695      0.20595598
H      -0.92600889     -0.81149668     -0.78077720
H      -0.90850638      1.31940242      1.22827642
H       2.31383095      0.05589376     -0.71323126
H       1.24000662     -1.08272671     -0.24289664
