8
b3lypvtz=-146305.35276176
N      -1.82025995      0.06943799     -0.08882079
C      -0.49545402     -0.37321121      0.00416128
C       0.58237116      0.40045705      0.02552342
F       1.82556516     -0.14432741     -0.00995382
H      -1.94212691      1.05753992      0.08190006
H      -2.46396353     -0.46442728      0.47659992
H      -0.36412156     -1.44795420     -0.01809054
H       0.59765765      1.48159915      0.04581948
