10
b3lypvtz=-118759.84968234
N      -1.85339511     -0.06993811      0.22957090
C      -0.72712237     -0.31649271     -0.29349351
C       0.52513259      0.52838442     -0.25100376
N       1.70871568     -0.16326712      0.26516427
H      -1.84051665      0.83844874      0.70222155
H      -0.62136556     -1.26851606     -0.82470401
H       0.34027851      1.41836934      0.35670151
H       0.75626851      0.87703502     -1.26201822
H       1.51395232     -0.57697278      1.16961849
H       1.98670508     -0.91715474     -0.35193622
