8
b3lypvtz=-141296.34150634
N       0.97976864     -0.26650606      0.62188602
N       0.36433460      0.80195905     -0.17211740
C      -0.82990261      0.46687546     -0.46812998
O      -1.44371469     -0.66673882     -0.12362694
H       1.82948941     -0.51465943      0.12394910
H       1.29829716      0.18343030      1.47491224
H      -1.44015358      1.14147695     -1.05631316
H      -0.75811894     -1.14573744      0.39304012
