8
b3lypvtz=-141261.74234704662
C       0.37414463     -0.21952534     -0.68335811
N      -0.46400128      0.37731352      0.12919764
N      -1.74877723      0.26124068      0.37914646
O       1.64227387      0.29920121     -0.77983433
H       0.02812319     -0.98277484     -1.36527549
H      -0.02317192      1.10580456      0.68766439
H      -2.10145869     -0.47028608     -0.24254606
H       2.29286745     -0.37097370     -0.54077551
