8
b3lypvtz=-174633.00346617
C       1.37309241      0.00000221     -0.08854594
C      -0.06222808      0.00000052      0.35716928
F      -0.71208872      1.10164258     -0.13558879
F      -0.71208567     -1.10164401     -0.13558761
H       1.87917417      0.88708032      0.29043095
H       1.41425510      0.00000178     -1.17718991
H       1.87917643     -0.88707427      0.29043173
H      -0.19522265      0.00000087      1.44125229
