7
b3lypvtz=-158783.53471166
O      -1.81720777      0.07868201      0.00000942
C      -0.70032684     -0.36248482     -0.00005980
C       0.53100761      0.51889833     -0.00008967
F       1.67539902     -0.26104933      0.00000553
H      -0.48470299     -1.45032341     -0.00013997
H       0.52906487      1.15366634      0.88929422
H       0.52911410      1.15350588     -0.88959073
