8
b3lypvtz=-138868.63520064
N      -1.49246906      0.93074264     -0.17801012
N      -0.27457857      0.36044263     -0.48881856
N       0.27460498     -0.16196598      0.48883992
N       1.49245185     -0.73234914      0.17801431
H      -2.09871149      0.87035199     -0.98274510
H      -1.90991708      0.52738198      0.65678524
H       1.90990321     -0.32903073     -0.65679944
H       2.09871616     -0.67197340      0.98273376
