8
b3lypvtz=-141276.81963013
C       0.63115241     -0.65820905      0.03886843
N       1.63887004      0.09717500      0.12294501
N      -0.71174561     -0.31516737     -0.14997056
O      -1.00368743      1.03987788      0.14577153
H       0.74954536     -1.74300269      0.04505566
H       1.34968708      1.07598885      0.12037939
H      -1.35485706     -0.89691531      0.37503760
H      -1.29896479      1.40025269     -0.69808707
