9
b3lypvtz=-154506.79724322
C      -0.88726869     -0.18358669     -0.37651411
O      -1.39175266      0.23743424      0.85711515
O       0.37184306     -0.81817613     -0.28401542
N       1.33982947      0.17122437      0.12578991
H      -1.55685867     -0.95335378     -0.75683927
H      -0.81681306      0.65392857     -1.07951769
H      -0.86832099      0.99777245      1.13424084
H       1.74853809     -0.22307124      0.96876999
H       2.06080344      0.11782823     -0.58902940
