9
b3lypvtz=-131230.85453029
C      -0.71923523      0.04463067     -0.42066294
C       0.69611152     -0.24379705     -0.00131357
N       1.61396626      0.61570960     -0.14684310
O      -1.64751779     -0.27846477      0.61127193
H      -0.79349585      1.08681081     -0.74220618
H      -0.98480466     -0.59464519     -1.26620651
H       0.84653022     -1.23364076      0.44642027
H       2.51040368      0.25925023      0.18513192
H      -1.52195815      0.34414648      1.33440817
