9
b3lypvtz=-131238.67053102
C       1.43163630     -0.38535140      0.00000136
N       0.54754725      0.77196784     -0.00000593
C      -0.69751091      0.58804912      0.00000382
O      -1.39043416     -0.58351976     -0.00000621
H       2.46470738     -0.04420926     -0.00003886
H       1.29444468     -1.01548668      0.88793188
H       1.29439426     -1.01554101     -0.88788381
H      -1.38541455      1.42711929     -0.00003101
H      -0.77682624     -1.32849013      0.00000177
