11
b3lypvtz=-108688.53055167658
C       1.54086036      0.88869544     -0.02974808
C       0.57022726      0.14926840      0.49318676
N      -1.35842532     -1.12929904     -0.47449690
H      -0.73318922     -1.47759521     -1.19289765
H      -1.36123489     -1.82423765      0.26379261
C      -0.86206949      0.15743414      0.03530626
H       1.34622106      1.58587771     -0.83712570
H       2.56103557      0.82975167      0.32669869
H       0.80317853     -0.54127657      1.30085773
H      -1.51528413      0.45257497      0.86144475
H      -0.99131974      0.90880614     -0.74701847
