11
b3lypvtz=-108619.20592171572
C       1.02651836      0.16851669      0.33973408
C      -0.32529615      0.86376608      0.15408951
N      -0.90061991     -0.42131973     -0.39299799
H      -0.85176439     -0.42436477     -1.41990818
H      -1.85074550     -0.64785896     -0.11923396
C       0.24436187     -1.15937103      0.41489654
H       1.66631484      0.34183738     -0.54435430
H       1.59308193      0.45799232      1.22544583
H      -0.82036028      1.08363071      1.09460662
H      -0.41695759      1.70050248     -0.53811499
H       0.63546682     -1.96333117     -0.21416316
