9
b3lypvtz=-128807.73385048
C      -1.36371925     -0.48971198      0.01801991
N      -0.47825576      0.65622757     -0.04710774
N       0.84615583      0.56035743      0.02470685
N       1.27766754     -0.61764286     -0.00645487
H      -1.18579057     -1.07833031      0.92186380
H      -1.20149980     -1.14522072     -0.83771102
H      -2.38887989     -0.12569393      0.00811127
H      -0.81635780      1.57993660      0.15071478
H       2.29421070     -0.53250481      0.03073403
