10
b3lypvtz=-97837.42750496
C      -1.63172139     -0.00000017      0.00000519
C      -0.31585723     -0.00000033     -0.00000401
C       0.92895933     -0.76912440     -0.00007849
C       0.92895963      0.76912329      0.00005385
H      -2.19563760      0.92490806     -0.00043449
H      -2.19563799     -0.92490809      0.00045408
H       1.23238118     -1.27295299      0.91013476
H       1.23238798     -1.27283447     -0.91035533
H       1.23240142      1.27283342      0.91032626
H       1.23236866      1.27295168     -0.91016381
