8
b3lypvtz=-141288.02207986
N      -1.32383906     -0.52374929     -0.05543097
C      -0.59150019      0.63147235      0.00482661
N       0.68215491      0.73518188      0.00810505
O       1.26334994     -0.57105429      0.00497572
H      -2.27072514     -0.48873733      0.27830945
H      -0.81955184     -1.37203736      0.14522030
H      -1.13941986      1.56523438      0.00693780
H       2.20246123     -0.37212835      0.03663504
