12
b3lypvtz=-98627.52689237
C      -1.95716214      0.07993686      0.00000290
C      -0.53570500     -0.39286925      0.00000394
C       0.53570575      0.39287078     -0.00000286
C       1.95716272     -0.07993475     -0.00000172
H      -2.01646433      1.16901136     -0.00000486
H      -2.49767266     -0.28874541     -0.87658756
H      -2.49766970     -0.28873279      0.87660050
H      -0.38984349     -1.47096087      0.00001136
H       0.38984399      1.47096223     -0.00001009
H       2.49766956      0.28873127     -0.87660134
H       2.49767469      0.28875083      0.87658646
H       2.01646461     -1.16900926      0.00001026
