6
b3lypvtz=-119615.64683928
C       0.95494586     -0.05521737      0.06213293
C      -0.24514577      0.00004767      0.04761715
C      -1.69111648      0.01167860      0.04458890
O      -2.35711377      0.98536503     -0.21035101
H       2.01705241     -0.08695043      0.07049628
H      -2.15542225     -0.95762349      0.29841575
