9
b3lypvtz=-131238.58397237
C      -1.27171376      0.27489950     -0.41715937
O      -0.29099587     -0.59017968     -1.00737213
C       0.95587920     -0.48691871     -0.52670405
N       1.28694076      0.31348853      0.39228229
H      -0.99619159      1.31932616     -0.55958091
H      -2.20384020      0.05012663     -0.92751961
H      -1.36052911      0.08040969      0.65115180
H       1.60422689     -1.18982647     -1.05137692
H       2.27622368      0.22867434      0.60294197
